113
CSD_code = UXALOV | q = 0 | S = 0 | Stoichiometry = C56H48N2O2P4Pd | MND = 4
Pd        7.31102541714049   14.42432708927268   12.56089536807119
P         6.80978944598599   12.61792544226996   11.27852274397512
P         7.84192263551256   15.01078685326419   10.42322215798003
N         6.56384899312473   11.93391920022123    8.20191759661461
C         6.39255661065057   11.94590081629945    6.76934224985137
H         5.32845671213226   11.87821586184531    6.52305639309161
H         6.90211292680200   11.08436310564429    6.32611795264692
C         7.01639609257060   13.29297484857892    6.31987828102573
H         7.86427561911640   13.16069633463889    5.64070157505535
H         6.28381969311771   13.96207017135515    5.85734929093408
C         7.15772613153196   13.01457769282253    8.53126830277665
C         7.56540534534267   13.34932489572769    9.84639594697044
C         5.00359367171445   12.46602646681994   11.19548459894336
C         4.37942934614468   11.48283421316885   10.43567801562717
H         4.98588034774146   10.77711549636212    9.88741648920562
C         2.99803061079587   11.44534895785680   10.38332535236606
H         2.50306368890438   10.68719620162266    9.79353584772039
C         2.24423729650474   12.37325447151022   11.08625814385344
H         1.16530178658844   12.33141912470991   11.04555666044839
C         2.86743142625776   13.35539195329965   11.84016651881245
H         2.27751803447967   14.07443168504873   12.39023429878433
C         4.24729800957311   13.40700292351648   11.88994920196231
H         4.75331564293195   14.17414883059763   12.49263445841215
C         7.39203417863994   10.91989734402352   11.48938915473054
C         8.39091097316349   10.38229782237458   10.68940486649938
H         8.77144521256979   10.96520150244861    9.86326054085517
C         8.86183432228794    9.10799629209598   10.95099369249470
H         9.63069984501232    8.67788140469065   10.32510692808789
C         8.35258527645127    8.38197690796292   12.01566859505475
H         8.72855525324828    7.38988196838626   12.21993193767741
C         7.36177822247711    8.92330760675719   12.82155843053620
H         6.96990627137061    8.35399229353820   13.65234346913960
C         6.88251620033800   10.19142175281299   12.56138450139980
H         6.10936695114478   10.63786368324127   13.17646790497674
C         6.61196480708231   16.22249336295063    9.85355285220189
C         6.58937065992875   16.72809594931034    8.55752562887678
H         7.35052393889663   16.42217424078330    7.85389357558509
C         5.59090162716768   17.61006136339372    8.18718019174776
H         5.57037505840226   18.00679251240461    7.18204400021833
C         4.61834316382846   17.99034119143480    9.09938998399538
H         3.84550453001946   18.68474328119589    8.80343616417702
C         4.63377579512871   17.48145294912703   10.38835157716253
H         3.87748093031433   17.78108959131917   11.09926936918457
C         5.62464583516372   16.59482773749107   10.76378662128730
H         5.65204140929973   16.19844807523758   11.78872812026375
C         9.43855827761592   15.57826946768645    9.78372266596323
C         9.71143970483725   16.92351510007651    9.55828535278089
H         8.92537830246077   17.65829692675925    9.67274737098714
C        10.98147765470100   17.31229847699311    9.17433951888894
H        11.19134639952567   18.35654524649889    8.99096526026272
C        11.98508509476122   16.36861928049687    9.02581427621400
H        12.97595162261355   16.67844630863689    8.72729517928527
C        11.71940486652079   15.02900367472415    9.26229419999202
H        12.50407479545755   14.29434475538848    9.14879493669564
C        10.45291427399213   14.63484433859141    9.64755949911304
H        10.22563967222877   13.59367827752473    9.84264427194212
O         7.48148602994157   13.88493905679809    7.52248185674747
P         7.81205802309105   16.23074725250094   13.84390580018908
P         6.78017262647324   13.83786620776403   14.69915376783450
N         8.05834599833389   16.91466804855404   16.92045327286687
C         8.22956856790053   16.90280530417349   18.35303281942289
H         9.29366252704734   16.97039122847907   18.59939452008791
H         7.72007958365770   17.76445172297896   18.79611549960958
C         7.60566934908037   15.55576913372898   18.80256900146758
H         6.75786950972911   15.68799985307221   19.48182279565113
H         8.33832391592797   14.88670435113119   19.26500095877642
C         7.46434066292870   15.83405517586147   16.59118469485849
C         7.05658068676765   15.49930994370241   15.27608832355494
C         9.61825064309991   16.38271286624246   13.92689210401784
C        10.24246247192263   17.36589321316770   14.68667504095490
H         9.63605186699243   18.07164017497386   15.23494505207358
C        11.62386279404426   17.40329039543169   14.73905345483466
H        12.11886695611777   18.16141488409901   15.32884692917824
C        12.37760455295138   16.47532887732146   14.03613355870607
H        13.45654307418872   16.51711468110574   14.07682090353595
C        11.75436373427748   15.49321911871669   13.28223233910903
H        12.34424020474063   14.77416671231974   12.73214088536874
C        10.37449752690066   15.44168281126755   13.23244989410998
H         9.86844742386142   14.67455062224095   12.62977001468272
C         7.22974730214390   17.92877934260119   13.63305781579900
C         6.23092632242453   18.46647743598144   14.43305864548466
H         5.85033317074107   17.88363298980696   15.25921494932996
C         5.76009246185672   19.74081937355833   14.17146184785070
H         4.99121958855284   20.17097307377685   14.79730642390642
C         6.26936348255885   20.46678954745703   13.10676390314034
H         5.89344419193165   21.45890093347340   12.90248373779411
C         7.26008672371277   19.92536220781612   12.30083388400676
H         7.65197629249719   20.49463627956922   11.47002887540876
C         7.73925714842511   18.65721317636825   12.56101831810325
H         8.51237620320836   18.21072637394606   11.94593945582928
C         8.01007665233887   12.62612049306437   15.26883737336549
C         8.03259814246419   12.12052328308454   16.56486938429498
H         7.27146622535744   12.42652775614489   17.26849456219993
C         9.03104051831674   11.23854688628110   16.93527041441997
H         9.05153092166428   10.84182826180160   17.94041335726494
C        10.00363080381862   10.85825371090925   16.02310649078397
H        10.77642268493860   10.16381058389282   16.31908818796891
C         9.98825096338032   11.36710135398046   14.73412848936998
H        10.74455642585281   11.06740855339803   14.02324494430804
C         8.99741526839781   12.25374477778998   14.35863664909409
H         8.97006170298634   12.65009768263356   13.33368482464432
C         5.18352733113195   13.27036484479190   15.33860896449360
C         4.91055851092384   11.92512767971420   15.56403034959762
H         5.69658565291509   11.19029622236853   15.44960229041469
C         3.64051066158127   11.53642385477148   15.94802062339459
H         3.43055773316697   10.49218789521650   16.13134299624761
C         2.63698068085258   12.48015933134401   16.09662925333962
H         1.64607905641010   12.17038665820115   16.39509350424645
C         2.90273099873645   13.81976545328898   15.86013951025281
H         2.11811318484934   14.55447950209397   15.97366178535843
C         4.16922802550089   14.21384685779486   15.47482289489749
H         4.39659657692594   15.25499710835913   15.27978561502447
O         7.14044304812592   14.96381555627792   17.60001810731275

