98
CSD_code = UXATET | q = 0 | S = 0 | Stoichiometry = C43H51N2PZn | MND = 3
C        10.68116334831925    2.01724172671480   14.07718875269460
C        11.48618011116900    1.79148035261228   15.20214080955587
C        11.24998163102451    0.60854301222073   16.11048637413448
H        10.33668954525334    0.09577880149835   15.78382744952063
C        11.03785038641940    1.02531996293638   17.56659950510340
H        10.82543096696091    0.14734215520465   18.17332516109722
H        10.19267884852862    1.70538375800522   17.65603543701983
H        11.91999050672212    1.51642405154619   17.97061713107232
C        12.42156140117294   -0.36895184120908   15.99388614260659
H        12.26511256983161   -1.22480616004829   16.64598093694009
H        13.35361510987994    0.11410033113973   16.27918980250940
H        12.51682838857388   -0.72175165350260   14.96768932845903
C        12.53288266450450    2.66256561326968   15.46772087551095
H        13.15938044034024    2.49489228103858   16.33137407391430
C        12.78669592738490    3.74318017474466   14.64712356298265
H        13.60537773157731    4.41243516453687   14.86754685561603
C        11.99200093745876    3.96037324859862   13.53791100166884
H        12.20265864943459    4.80061772645080   12.89489400011255
C        10.93438841369248    3.11589961416727   13.24016549814356
C        10.09796166885051    3.33190887373973   12.00293975313183
H         9.11689868987827    2.87129988072711   12.17503428538618
C        10.76036086247005    2.61713053106734   10.82140250827162
H        10.14224658703604    2.69979780344959    9.92918180883379
H        10.90937584596251    1.56422184812345   11.05321285376942
H        11.73250608672698    3.05954376259367   10.61353081353904
C         9.85834040540927    4.80497836532728   11.67933882891029
H         9.09453420421542    4.89228617928674   10.90881886614111
H        10.76219470900008    5.28135750861130   11.30773505123808
H         9.51813882778796    5.34051081032537   12.56332631474714
C         7.87149274326771    3.18007192671161   14.52443113522816
C         8.66045399666889    3.75433727572739   15.51692373595564
H         9.33232287076910    3.13144610919379   16.08958801803920
C         8.58422075346213    5.11185440522957   15.76603363956016
H         9.20185589107532    5.55262859598980   16.53431650006785
C         7.71828507456086    5.90267310471041   15.02817388354722
H         7.65802562842402    6.96345676262277   15.22146072990750
C         6.93193565452134    5.33374598771141   14.03956236051799
H         6.25867879636534    5.95067605987300   13.46264556230748
C         7.01052581990845    3.97682652215800   13.78061390581334
H         6.40354090240609    3.53881202790185   13.00081073906724
C         7.00990904801549    0.99682293640344   12.81092246771978
C         7.47635372858403    0.70270592107499   11.53699897719003
H         8.54021510587272    0.70492011986565   11.34083441114240
C         6.57535390865992    0.43591384452502   10.52012469915910
H         6.93651039200792    0.20303293078206    9.52934217342513
C         5.21308137383909    0.47597582730262   10.76904317789146
H         4.51346535284765    0.27900641898176    9.96988512052187
C         4.74491741610652    0.76800670805513   12.04120717326229
H         3.68259254885036    0.79555534344854   12.23519610545964
C         5.64071970931574    1.02089439729184   13.06308672141840
H         5.29228159609281    1.23363441520404   14.06576297634617
C         7.48419546371541    0.48972462242039   15.59019479571980
C         6.91978218521796    1.14667690524013   16.68112007390566
H         6.92413301235135    2.22867074136156   16.70409527193018
C         6.33996381371983    0.44115096935241   17.71206303215955
H         5.90783770206328    0.95813290709689   18.55505046915639
C         6.29797743870664   -0.94925374260184   17.63487060310448
H         5.82233958696252   -1.51310305598883   18.42556770452248
C         6.85003122889831   -1.61713029134811   16.57204929742622
H         6.80238302763419   -2.69566532145260   16.52796629310196
C         7.49608795983718   -0.92871602295025   15.51644182736889
C         7.92871574755441   -2.96736585853094   14.41106449976655
C         6.79672710553139   -3.49630746463447   13.77427267792262
C         5.76904049564861   -2.58637853101673   13.14515192455877
H         6.14835540839716   -1.56223718712508   13.19317538768356
C         5.55775372916992   -2.93721344248245   11.67159017309729
H         4.87210190095324   -2.22714117546441   11.21390283210356
H         5.14114428827034   -3.93495225617328   11.55964865934799
H         6.50532353038248   -2.89592082047219   11.13796744732375
C         4.44844449283594   -2.63846106590112   13.91501596616670
H         3.72471835970666   -1.96174452672293   13.46445430448953
H         4.60378694190095   -2.33889318919747   14.94944005334752
H         4.03441907948310   -3.64425913372321   13.90492756708838
C         6.62540827659188   -4.87126963838257   13.72373248677557
H         5.74630104731148   -5.28344892647282   13.25081911133828
C         7.55741673597387   -5.72404393633735   14.28133503240989
H         7.40562205694954   -6.79317301458526   14.24822965348092
C         8.68724865924907   -5.20121214080282   14.87912176342871
H         9.41280167670154   -5.87398506388493   15.31038324828121
C         8.89558028261581   -3.83100575302789   14.94783016476957
C        10.13269375296598   -3.29563884053652   15.63044859571184
H        10.25469571509015   -2.24333814081366   15.34097408911443
C         9.96526915917592   -3.35679389001020   17.15120595679824
H        10.86798477247329   -3.00644397117339   17.64854514997224
H         9.77293577179202   -4.37966427454516   17.46940061081175
H         9.13204339992010   -2.73393818626746   17.46890477314162
C        11.39710445652779   -4.03968357811323   15.19812611052071
H        12.27922240330772   -3.51947181838405   15.56540218581790
H        11.45419152297047   -4.08932225147528   14.11335947935412
H        11.41685739451029   -5.05154417615772   15.59495464862620
C        10.59580910773840   -1.84733900451454   11.91560727718913
H        11.66345182410121   -1.82214214241594   12.10993078730660
H        10.45188453256532   -1.44482748816138   10.91759878411804
H        10.30436302745027   -2.89287317281585   11.87863872769130
N         9.63520688974507    1.12504080042586   13.75262416395724
N         8.09043504909308   -1.56088356808558   14.48998102407518
P         8.11999675536672    1.41518272076666   14.18417781126884
Zn        9.52084945363680   -0.88169512783068   13.30514950657684

