42
CSD_code = UXEBAC | q = 1 | S = 0 | Stoichiometry = C16H18N7Ru(1+) | MND = 6
Ru        7.51080296515313    8.55842798537321   11.45469741021842
N         6.29313100124048    9.26642590242101   10.14165422658849
N         5.98484015052861    8.50273432421563   12.83842591249236
N         5.78106961587629    6.35300564860300   12.05903646401066
N         7.01608927063269    5.49891963290013   10.52340660643084
N         8.16480111043168   11.54204551556492   12.17313026397013
N         8.76558350518307    8.08290909501057   12.83728969813900
N         8.94906737277294    8.61520790632916   10.16079186412189
C         5.62152982945387    9.87319863956133    9.42575365726831
C         4.78624234983557   10.61464789145228    8.53325101144766
H         5.27852487011343   11.55228729715441    8.27445761359853
H         3.83601273481315   10.83821069064714    9.01795750091438
H         4.59948392228998   10.04317081942596    7.62391091309155
C         5.61069299108810    9.50395830049247   13.63855411179207
H         6.16667038786303   10.42754114769615   13.53582549207972
C         4.57689361295017    9.38571009593197   14.54891524222176
H         4.31302529107678   10.22395393214246   15.17175105579248
C         3.89475894174344    8.18008864911381   14.64256704544170
H         3.08411940184995    8.05417575302014   15.34217589122352
C         4.27329357609745    7.13453436298153   13.81903156314248
H         3.76624158459140    6.18511422584388   13.86583601303611
C         5.32259521185000    7.33338803109526   12.92922510330205
C         5.33724127245905    5.06174324679104   11.87375375153688
H         4.52797971799056    4.62597563825465   12.41985600240133
C         6.11712681775431    4.53150124354886   10.90775785453515
H         6.10502737965818    3.55543772416239   10.46827650156662
C         6.82671227428333    6.62504764210645   11.21871882209544
C         8.01103915873932    5.30122846367787    9.50672545697485
H         8.60019406841649    6.21175293423720    9.41068070481772
H         7.53591252909466    5.07612324168766    8.55069714052667
H         8.66705851941614    4.47225465496390    9.77557796430402
C         7.96826452973004   10.45162641076299   11.86981179974683
C         9.53070366317993    8.01083830739708   13.69818702618501
C        10.47863700058137    7.91281136260695   14.76389593589848
H        11.02363876062246    8.85323104705071   14.84890281420069
H        11.18412889277011    7.10491622324050   14.56989530574938
H         9.96096220311106    7.71812996264814   15.70297968029921
C         9.83538993375710    8.84569737087624    9.45746740513937
C        10.93329762191894    9.13440489733353    8.58703687593984
H        11.74432096520050    8.42713069387890    8.75961002408453
H        11.29337338628977   10.14512252608881    8.78108824870271
H        10.61322160758852    9.06377056171161    7.54763602496116

