61
CSD_code = UXECIL | q = 0 | S = 0 | Stoichiometry = C26H24N6NiS4 | MND = 4
Ni        4.78164421890469    0.00106677837728   12.00885760626550
S         4.75898634035420    0.33321550556193   14.23272792972938
S         9.05511548015826   -2.09702104102195   13.41871986717779
N         6.05482586275600   -1.25892626194715   15.84906770911853
H         5.58589797842279   -0.63538479193538   16.49320320512438
N         6.34443026817271   -1.01252222738408   12.33970881834269
N         6.61093137882674   -1.44969275252746   13.58932209506337
C         9.62298649186467   -1.93276382751199   10.89021779159903
C         8.58562630451975   -1.71433664859164   11.78713796585010
C         6.75935154679729   -2.31426432066200   16.42083294845536
C         7.30632457352450   -1.19964198905055   11.47450534344173
H         7.11753774909386   -0.93884137022654   10.44166751012702
C         5.91149771650770   -0.92286419295715   14.54836302761262
C         7.14625199026318   -3.43484340135437   15.69260805402341
H         6.91131677211646   -3.49116439714330   14.64379153038884
C         7.82299057095672   -4.46261693682008   16.32094916237669
H         8.12289172993509   -5.32678939060249   15.74711692160251
C        10.77967757217287   -2.40063147064739   11.53578953121358
H        11.69329865936498   -2.63158707092593   11.01616567064617
C         7.03397189867163   -2.25576465243368   17.78622494091521
H         6.71640632199611   -1.39503502894779   18.35818161351932
C        10.62386673344947   -2.52948516453909   12.88468284329491
H        11.35141655528310   -2.86697715730776   13.59637532018995
C         7.70955177289309   -3.28988091396011   18.40445103001071
H         7.92156097640939   -3.23189060509401   19.46187015854766
C         9.52292881065066   -1.69563949834720    9.42065255194432
H        10.45228175318568   -1.97619330568989    8.93216922127292
H         9.32545579654906   -0.64421478495754    9.21348514893986
H         8.71084504031798   -2.27977744040678    8.98982615871247
C         8.11290793711520   -4.39515909807259   17.67366680075919
H         8.64473155869863   -5.20036393318352   18.15740088992047
S         4.80275616803166   -0.33323852763375    9.78525153138489
S         0.50672740430729    2.09679530424316   10.59880509625902
N         3.50730542389844    1.25896085420585    8.16856551692237
H         3.97631613053584    0.63543475459407    7.52448901545010
N         3.21746705747783    1.01249326034199   11.67783241232662
N         2.95082022781353    1.44963163088702   10.42822037769291
C        -0.06111441363038    1.93274374284696   13.12729326735289
C         0.97622921535097    1.71412829941721   12.23040159778154
C         2.80274407789679    2.31423639860646    7.59673775080762
C         2.25555732816743    1.19944090446058   12.54303383260306
H         2.44452365894620    0.93892769236480   13.57591831577814
C         3.65052522253424    0.92299181929235    9.46926677680777
C         2.41579610760552    3.43480789032938    8.32493555684807
H         2.65071297756021    3.49116061083061    9.37375160580425
C         1.73898521210107    4.46251435971714    7.69656796190554
H         1.43902501121983    5.32667333248797    8.27038388068132
C        -1.21777789323405    2.40069177011942   12.48171929503081
H        -2.13140218730807    2.63170787254645   13.00132245129385
C         2.52812580362823    2.25565395194209    6.23135678090704
H         2.84575600654090    1.39492986777801    5.65943276708668
C        -1.06195135625463    2.52955466071809   11.13283036026607
H        -1.78948172651104    2.86707477224221   10.42112403272478
C         1.85246776328567    3.28970294827086    5.61310732343167
H         1.64043995753226    3.23164845228409    4.55569805626671
C         0.03892807614396    1.69571543444243   14.59687637742500
H        -0.89041332603720    1.97634345213053   15.08533846593800
H         0.23635277623901    0.64429328697729   14.80409154357359
H         0.85103937336033    2.27985802557905   15.02764727259949
C         1.44905525004510    4.39498034434318    6.34385870181490
H         0.91717631282073    5.20013422394858    5.86010270905300

