49
CSD_code = UXEFIO | q = 1 | S = 0 | Stoichiometry = C21H18F3MnO3P3(1+) | MND = 6
C         3.48934876984429   11.93896569885394    3.67291957606530
C         2.89810747331445   12.17035690837676    4.91220761725074
C         3.27654940881666   13.20482009996195    5.73520022513142
H         2.79257088326250   13.35693641743137    6.68623749817299
C         4.30009225780952   14.03243127461174    5.29112116095106
H         4.62132090128958   14.85319956159163    5.91276256323276
C         4.91298011650230   13.81819990908907    4.06541587187690
H         5.70591818354872   14.47458594146867    3.74240488561609
C         4.51859282408256   12.77096002786979    3.24864536449107
H         4.99477010200194   12.60280899930437    2.29252556522006
C         2.09199861270575    5.90111268182138    1.41003338921638
C         1.29048467942502    5.27492918844375    2.35884452617648
C         0.90176845251884    3.95818737378591    2.25269501921642
H         0.27878014173160    3.51217952723592    3.01106017425316
C         1.33534662521435    3.24321152592019    1.14571054895639
H         1.04534809622785    2.21013608968265    1.03593731394584
C         2.13336468114314    3.84333581319538    0.18303944568753
H         2.45856780480624    3.27371936157559   -0.67360815970972
C         2.51772296648352    5.16715067756257    0.30774129661262
H         3.14673344265415    5.63183876941317   -0.43714556773093
C         6.50301559264639    7.35580954226252    2.92467793994878
C         6.13472519897260    6.23050831577529    2.19397510427252
C         6.87804787359112    5.07487851938671    2.17493032041151
H         6.56164530878319    4.22520078095273    1.59188205553812
C         8.03994431834288    5.05087876466228    2.93619861387363
H         8.64607582903640    4.15892840355743    2.94489280256371
C         8.42563092952014    6.15299307932402    3.68419119669607
H         9.32981646294539    6.11089245679319    4.27092024072925
C         7.66219394652430    7.30895422241715    3.69048198170273
H         7.95641838773827    8.16620728257790    4.27854948912838
C         1.60820036230057    8.44432099755017    4.42196675708088
C         3.60197389113724    6.76983776115053    4.24061362114337
C         3.87779369161633    9.11819446646509    5.24774901912497
O         0.57951792018460    8.51441076980966    4.89347765401876
O         3.83429356445727    5.68894731241053    4.52074830825046
O         4.28281024818124    9.56368625743857    6.21667069466901
F         1.92108417068810   11.28896298677578    5.23719140005733
F         0.90286417821493    6.04593233853466    3.40288592459333
F         4.97451876412702    6.36184844822843    1.48747858562596
P         2.85085666141239   10.48423429038520    2.82933791488562
H         3.28407046086563   10.76506954077577    1.53319024923600
H         1.53467255780088   10.87888083145051    2.61990064805672
P         2.49503274907019    7.63088247389621    1.71932409647625
H         1.28487560271055    8.20208045508396    1.31815611205184
H         3.16744225748660    7.92178627455555    0.54144689595933
P         5.32543050568126    8.71600438439822    2.84371370029067
H         5.44849867451567    9.05165794447591    1.49571817190705
H         6.13411824784698    9.74600626308257    3.31125006225029
Mn        3.26346522021274    8.44593898862843    3.70543212483071

