77
CSD_code = UXICUB | q = 0 | S = 0 | Stoichiometry = C40H31Cl2N3Pd | MND = 4
Pd       16.07622293476628    4.28586937164235    7.09241774274485
Cl       18.02552669218541    4.28585219976847    5.81710512167657
Cl       13.92182949187091    4.28596326959699    7.97285979509930
N        14.78672293762538    5.38010742097990    4.70401261364949
N        17.05470962785697    4.28582652101895    8.94931582834456
C        14.14601337056853    4.98773366164492    3.54172330799798
C        13.57190543765321    5.70233795649795    2.50016342313083
H        13.56464448260495    6.77754698494209    2.48173038304244
C        12.99966378604870    4.98161372543496    1.47074624112653
H        12.54317016395935    5.51122147723853    0.64875665147472
C        14.98996549235713    6.79270897787163    5.01404147538263
C        13.68590636375885    7.56667429867708    5.00452312061337
C        12.55087934009897    7.33053608516214    5.74552631726895
H        12.48736221289227    6.47646518079901    6.40384942936178
C        11.49104500702678    8.22104412230540    5.62200421857488
H        10.58844674533245    8.05676453146174    6.19107807537672
C        11.58226969152939    9.31995815711842    4.78250969886939
H        10.74855865872466   10.00291880283004    4.70820690183906
C        12.72583886588364    9.55687571100798    4.03372097725474
H        12.78676570204307   10.41298204827950    3.37853402537233
C        13.78373752904245    8.67147033091893    4.14520014145495
C        15.07525935921511    8.62158234301776    3.46811096437784
C        15.63569653835092    9.43976261966122    2.50258728182015
H        15.11380512300342   10.31576788373054    2.14738283510528
C        16.88444434047150    9.10830981364043    1.99749984398461
H        17.33540111489148    9.73637754139064    1.24303724914091
C        17.56188602214553    7.98414199947525    2.44267072359680
H        18.53100637249019    7.74572662521780    2.03108361774523
C        17.01073651074979    7.16174676445299    3.41776333132886
H        17.53847229678605    6.28959813885237    3.77526318128245
C        15.77182844760153    7.49063327523895    3.91789882743150
C        15.68979338830323    7.07774302929178    6.35219365859313
H        15.09847565571216    6.69125022283001    7.19415778867711
H        15.76003221636262    8.15980830784456    6.46118345463740
H        16.71153397844097    6.67223822227460    6.35673821734720
C        15.16742286327635    4.28590316978700    5.39060521691439
C        16.36040264827195    4.28659016942805   10.08818394429430
H        15.28007062462473    4.28716215387609    9.99711648096033
C        16.96293640525287    4.28661373615071   11.33448028393754
H        16.35153234739626    4.28724728004471   12.22302404167815
C        18.34572927150975    4.28580822389906   11.41383259549327
H        18.84662143155940    4.28579049623072   12.37047036728442
C        19.06786775547803    4.28502506661009   10.23187549312740
H        20.14643247885062    4.28438563311636   10.23546525717505
C        18.38620788150687    4.28506598862415    9.02701262859037
H        18.92716820289628    4.28451303294448    8.08745376697393
N        14.78664084288913    3.19171212808803    4.70405971295679
C        14.14603659727518    3.58407705880108    3.54170213218103
C        13.57189841852892    2.86943327439779    2.50019734868277
H        13.56443379973209    1.79422244394169    2.48193298809266
C        12.99962280113825    3.59012146089223    1.47077515740592
H        12.54305695766253    3.06047662549132    0.64885475412474
C        14.98984867363612    1.77911678104417    5.01410560667462
C        13.68582995693579    1.00509941615434    5.00446485751861
C        12.55075618565937    1.24118139416984    5.74541007658358
H        12.48716824159565    2.09524999735085    6.40373138771621
C        11.49097822334251    0.35061324619711    5.62184598878887
H        10.58835198342518    0.51483100555226    6.19089362163174
C        11.58231004229661   -0.74828511311257    4.78234490481220
H        10.74864536634038   -1.43130030290040    4.70801083330468
C        12.72592203322256   -0.98512854827465    4.03359112910308
H        12.78689889025191   -1.84122306092689    3.37839142160945
C        13.78378212340254   -0.09968077591738    4.14512685600215
C        15.07536481696734   -0.04971183936031    3.46813266887623
C        15.63600876415159   -0.86781699877501    2.50265992915252
H        15.11425554911863   -1.74386031637570    2.14734233800914
C        16.88481146237144   -0.53625490585528    1.99776581642299
H        17.33593213979438   -1.16428596005577    1.24337002590576
C        17.56212227679426    0.58795352922471    2.44303402889387
H        18.53128576320349    0.82645009744845    2.03159600242274
C        17.01076750594225    1.41028285482331    3.41806145610216
H        17.53835571862799    2.28247623614307    3.77567211571206
C        15.77182542435084    1.08126354065255    3.91801875338598
C        15.68962367097959    1.49403810114156    6.35227568555871
H        15.09830362541420    1.88050167257980    7.19425143446467
H        15.75983992352391    0.41196392217473    6.46121490966487
H        16.71137441241497    1.89952046244327    6.35684951711178

