46
CSD_code = UXIFUE | q = 0 | S = 0 | Stoichiometry = C17H23Cl2N3Pd | MND = 4
Pd        8.18164511837871    5.79668586590547   -1.03397940597348
Cl        8.63836996324449    5.21957398201778   -3.14757199432779
Cl        5.99868604331856    6.09984296805654   -1.62124586293818
N        11.22026907283133    6.16225669873742   -0.99935242608173
N        10.43047681679282    5.07447995972481    0.67423000071958
N         7.59187658070610    6.02263420600566    1.11688784589133
C        12.01896034186257    5.86017976546438   -3.29079923874787
H        12.97745614858576    5.49369629756074   -2.92870014727220
H        12.17338425516375    6.38068345249899   -4.23084193728270
H        11.35160641602888    5.02089997914049   -3.46826834000973
C        11.37243556432122    6.80490610806765   -2.28365466170410
H        11.97794275575350    7.70565417395908   -2.14756602453777
H        10.37251720792965    7.07653819042670   -2.63708322559140
C        12.26014724071682    5.93821581897738   -0.13714067958282
H        13.25496599580732    6.27748526413366   -0.33967202106620
C        11.76414087504782    5.26160168164943    0.92426615740357
H        12.24237278679526    4.89720890968483    1.81012968690661
C        10.08931553169645    5.63494600963018   -0.50401606359812
C         9.46890149645717    4.47022138334107    1.55568391661795
H        10.00397943472354    3.95948034924788    2.35952556153294
H         8.87776284984078    3.73695993015915    0.98854523728046
C         8.53860892116621    5.54920690375845    2.13954351126866
H         9.17422101430788    6.38169060868820    2.45377592486481
C         7.69947865175327    4.99854951847508    3.31875640076963
H         7.85248197854460    5.58980884094661    4.22031026753258
H         7.99028930112065    3.97218769776786    3.54086185900275
C         6.24753315621164    5.05660006837657    2.83519512553614
H         5.68157942465422    4.17072169520439    3.11305205541698
H         5.73242623597810    5.92773414392464    3.24015808101282
C         6.39867233968241    5.18348030267434    1.32056817577383
H         5.53376186068042    5.62037669081290    0.82392248280321
H         6.58483402943082    4.19996964507778    0.86966498411094
C         7.28946553747861    7.46018001807632    1.27617691281961
H         7.14012429986333    7.71619941130248    2.33282559896003
H         6.36802894867297    7.65528423157017    0.72118694700890
C         8.39936670283340    8.29028949443240    0.68134707599556
C         9.45504332231750    8.75533198596672    1.45466558772636
H         9.46111482861803    8.58632409435162    2.52358513667277
C        10.49607399856442    9.46555332104236    0.87780816200100
H        11.31042866079352    9.81764294250999    1.49406947761001
C        10.48326624806484    9.73256410718206   -0.47893870623839
H        11.29014083855783   10.29465995300576   -0.92582265322664
C         9.41760507664400    9.30658046095501   -1.25677048232285
H         9.38366785004490    9.55261752658813   -2.30777211551525
C         8.38125907514279    8.57995477093068   -0.68810374576488
H         7.51071520287126    8.32224057198947   -1.29254244145701

