76
CSD_code = UXIFAJ | q = 0 | S = 0 | Stoichiometry = C26H36N4O9Zn | MND = 5
Zn        6.56457328609838   14.84773980277826    3.62322164263360
C         3.93460222481390   14.17574239585988    3.52405267156965
C         4.65003379870651   12.90909664550645    3.05960065403749
C         3.93665746130812   11.78677965443338    2.66507241788513
H         2.85896212946604   11.82842350553383    2.66556422663240
C         4.64627796626482   10.65801370190395    2.29838962254299
H         4.13487807493019    9.75707463444057    1.99203232053380
C         6.03007181980245   10.70326431730625    2.33943723865287
H         6.61253300410123    9.83219096436026    2.07788766766997
C         6.67185229369598   11.87462766624438    2.72870292356649
C         8.16616737918572   11.98376170507946    2.78326101408304
H         8.42370712367798   12.48242791160945    3.71868197559301
H         8.62047445149343   10.97737030502695    2.77379530032726
C         8.54021282266129   12.15184424565380    0.40111805019703
H         7.95999626467261   11.23301572753123    0.51134826275194
H         9.52593099533963   11.88195518262344   -0.00509888239840
C         7.80896539433165   13.01787928143747   -0.62734676495121
H         8.31020600824898   13.98807007359685   -0.73249933038495
H         7.82390042650740   12.50857951530455   -1.60715343448553
C         5.74076348578518   14.04741173176632   -1.05863307949563
H         5.42060827382981   13.48039837036817   -1.94719579614692
H         6.35451407448532   14.89469956893301   -1.39596260756383
C         4.53538650700825   14.61598407589348   -0.31010917248746
H         3.61431832839114   14.50424540785649   -0.90194381397640
H         4.41543656241209   14.05963055947266    0.62765032890058
C         3.84063425487098   16.54231211392360    0.85494446601271
H         3.79395992274918   15.94940370230813    1.77250558039640
H         2.83651217699530   16.55163659844058    0.40364965351376
C         4.27245965954659   17.97343192358337    1.15792715432034
H         4.44169247661872   18.47431169090652    0.20251436081939
H         3.44808285001213   18.49042079393603    1.67027853189274
C         6.35939388397308   19.12901607677048    1.54082937763503
H         7.09066204788690   19.31423116679288    2.32927944481996
H         5.79306875793098   20.05802732881715    1.36530630445084
C         7.14453597381099   18.76182624025683    0.28329878114364
H         6.49761252526481   18.24226774850785   -0.43714848969136
H         7.54252394722909   19.67004523172772   -0.19677365923119
C         8.88970095084873   17.36197713110448   -0.42585822668073
H         9.29530493747599   18.15727179056261   -1.07159052452405
H         8.20456582742063   16.74380607704268   -1.02683527086443
C        10.04088630097441   16.50406972318879    0.08454570696898
H        10.65694345910440   16.19223177965092   -0.77251088174145
H        10.66355131269882   17.09359095830195    0.77148950960156
C        10.48235871177448   14.36899319589799    0.97981042092941
H        11.40046257304592   14.81242336414981    1.38996028212915
H        10.73833318918037   13.88913247469674    0.02123900822629
C         9.96667718838811   13.34898491177278    1.99259942635768
H        10.73385816580757   12.55348544713279    2.06051481893527
H         9.89636600639570   13.84079566552778    2.96340867885303
C         5.18997919238426   18.04430400621485    3.37812401458650
H         4.58183754134095   17.16215241060770    3.59161227799167
H         4.61964532469479   18.95002968283754    3.64726395545040
C         6.42079906392142   17.96639308919027    4.23511635210736
C         6.87027351514322   19.07695325917109    4.94533640836226
H         6.31790918616563   20.00364038145645    4.89708856423002
C         8.02213588666832   18.98442014170957    5.71010600563785
H         8.37896528520688   19.83719749509559    6.26905968990140
C         8.70387072142885   17.78133713356007    5.73543581378763
H         9.61525686830493   17.63606553049839    6.29289316501981
C         8.17704580973185   16.71478934285266    5.02120041463481
C         8.85714436766822   15.34848784494150    5.02735821259134
N         5.97594674599295   12.94830461720502    3.08244162173196
N         8.65413246474243   12.81214326390311    1.69006286535908
N         5.49943438077837   18.02804167387797    1.94772729533904
N         7.06586655674627   16.80648305283064    4.30100306483944
O         6.88448668624830   15.47751818478635    1.76674411385813
O         4.69294145443688   15.06693550452953    4.02096466391634
O         2.72594389510186   14.25382553506864    3.38046166089660
O         6.48080401529826   13.21310913681576   -0.20196793300184
O         4.77098410439525   15.98008108703200   -0.04888075891922
O         8.20649628482240   17.91674481560207    0.66725720027047
O         9.52103047620688   15.37734917729116    0.74807303162658
O         8.12646434628451   14.38738373866936    4.62819987875424
O        10.01725681943963   15.27028866902107    5.39125654714868
H         6.55009582262973   16.37089302247606    1.55241692957647
H         7.77827592699037   15.39280811722947    1.39578705434671

