51
CSD_code = UXIHEP | q = 0 | S = 0 | Stoichiometry = C16H22Cl2N4O6Pt | MND = 6
Pt        8.62120208565323    2.91094617292183    1.42321648169910
Cl        7.47630293304204    3.34083897579557    3.34294575332851
Cl        7.85589710343786    4.79757102032701    0.40572372240389
O        11.66850217587361    2.49069114657533    1.59473750055035
O         6.94440629177695    1.95573775445912    0.72945602797198
O        10.16484214058761    4.02845482457615    2.17813433981637
N         9.71359639615936    2.45609574548520   -0.38229855483399
H        10.69775801144486    2.39268114442136   -0.10657048154712
H         9.58439570904920    3.13811423107443   -1.12455446392200
H         9.37979329071104    1.53031765039212   -0.66941567591275
N         9.36770887636369    1.10757321000621    2.34460983241379
H        10.38852886864408    1.18580785170817    2.32586917142758
H         9.07207246847487    0.34856448054001    1.72178848330517
H         9.02922894857969    0.95827278397823    3.29133722479110
C         7.05317658262035    0.80507668244211    0.17687668648009
C        11.37143253289259    3.57932713580197    2.09787395944430
O         8.13330912623929    0.20820395707661    0.02761466980448
N        12.27133177369986    4.44770304729451    2.63369552074526
H        11.85235376609629    5.29180051368148    3.00148156598055
O         0.53621799130378    1.56587833129440   -0.32197301531056
N         5.92028747155175    0.20183380346921   -0.27290185344256
H         6.08713818784970   -0.70589533036960   -0.68711754530870
O        17.80335122334735    4.16943134076355    3.04867389805820
C        13.66342347980218    4.35729862618817    2.73071998410356
C        14.34813087537357    5.41856282149408    3.31109456835271
H        13.79864265603563    6.27681132421767    3.67046508995867
C         4.16904625105473    1.83958752249491    0.26100879859857
H         4.89296013043329    2.52520248301421    0.66770930387508
C        14.38684419508327    3.25833922262705    2.27381494045180
H        13.86769695525536    2.42993189755669    1.82284935291869
C         3.62577448801555   -0.25459417203368   -0.76973917797045
H         3.93233352334251   -1.21027322093489   -1.17073846583368
C         4.58222046550202    0.61672653251097   -0.24822893156429
C         1.87616477236486    1.32027416529051   -0.26623665960884
C         2.82920986603006    2.18830294829905    0.25236987178716
H         2.54866727028566    3.14709719303855    0.65712674119458
C        15.75887873202661    3.23485969422906    2.39822342947427
H        16.32797678470635    2.38896254389844    2.04727321956848
C        16.44767780555821    4.30008940449718    2.97900703643952
C         2.29321970154716    0.09082857532200   -0.77877560169010
H         1.54970146274338   -0.57902451930438   -1.18020299354235
C         0.06040379813195    2.79273887081103    0.17636140938051
H         0.27753238908322    2.90491695250238    1.24348429414040
H        -1.01840745708384    2.77192127189274    0.02917503841270
H         0.48370338842498    3.64060599727091   -0.37163646167134
C        15.72564796590012    5.39623884583283    3.43683503190334
H        16.21860002452552    6.24004700165669    3.89267309636220
C        18.54877151559429    5.21458289488277    3.62255042734917
H        18.42907822698593    6.14856370506673    3.06431181227376
H        19.58904383528287    4.89766012819320    3.57174627740709
H        18.27312294264717    5.37871481572075    4.66915531990054

