86
CSD_code = UXIKUI | q = 0 | S = 0 | Stoichiometry = C37H43N3O2Pd | MND = 4
Pd       16.40664079839063    1.60169901578586   12.92650237802431
O        16.88177797667536    1.69443121252364   10.84796452381993
O        18.07330014036856   -0.51518847271046    6.83192204255303
N        14.76733225209372    0.56500867695974   12.32004738325078
N        17.88802902289958    2.69371787146399   13.44558384690123
N        17.85474498984305    3.32364591716583   14.55069182499875
C        14.68951154137480   -0.17032487593946   11.24872716966425
H        13.77405009474515   -0.75282215361112   11.10048327165172
C        15.62302136481530   -0.23546273794314   10.19012502738320
C        16.66864997515153    0.73980506430358   10.03151564412170
C        17.47963235435755    0.65044801478770    8.86883572836199
H        18.24804853096028    1.40220870599591    8.77595802572383
C        17.31057647109290   -0.34449741472920    7.93926810218247
C        16.27317143457843   -1.29215110925422    8.10403648070417
H        16.15490997861119   -2.05570479832895    7.35296023072542
C        15.45416562885116   -1.21587184116568    9.18913814850386
H        14.65742760390561   -1.93695063198947    9.31048515001561
C        19.15068338194798    0.37074253211772    6.60631635668274
H        19.84334106992013    0.34532571605380    7.45911853746878
H        18.77837538086564    1.39830518733702    6.49327704154220
C        19.86839441692560   -0.07289989010909    5.33663295794420
H        20.19288244711481   -1.10724512158563    5.46356043033664
H        19.16041540426674   -0.04658521672651    4.50669842729566
C        21.06929979217855    0.81677553682890    5.02865409374950
H        21.76381403023528    0.79215237828594    5.87208040873025
H        20.73372920189838    1.84967780147294    4.90827723637729
C        21.79735806344785    0.37039563102305    3.76318691520828
H        22.12867266184552   -0.66355302537867    3.88386472292743
H        21.10430690224600    0.39854037178085    2.91938832975735
C        23.00477487611144    1.25209718354340    3.45277947680071
H        23.69713609088645    1.22578389221481    4.29745928372295
H        22.67411958971601    2.28587212740493    3.32884289405173
C        23.72815075523357    0.79714373221645    2.19131255224120
H        24.58580791396418    1.43461872013104    1.98974298978328
H        23.06073153064944    0.83802898926357    1.33327781457732
H        24.07956947219722   -0.22643300824908    2.30174188560026
C        13.64079964201042    0.68066452043346   13.14825515459063
C        12.87076205928148   -0.40622098338397   13.55447557131551
H        13.13944694319665   -1.40507264335750   13.24054208039272
C        11.80246576670200   -0.21310185503905   14.41083268295902
H        11.22899930302096   -1.06696441090296   14.74268946522595
C        11.46474665297676    1.05514204725889   14.86525391435249
C        12.22074800316771    2.14053060591830   14.43353423094678
H        11.96720814572049    3.13363879332762   14.77468766968788
C        13.29885741655618    1.96167467783734   13.59268650654425
H        13.90206716419103    2.80954231732409   13.25795615906699
C        10.28930494671416    1.25195549093812   15.77645755498985
H        10.20724904716317    0.40138528820515   16.45434675298493
H        10.43065017812745    2.15586825460072   16.37215736123527
C         8.99505028124214    1.38540138640890   14.96396783094882
H         8.81893789054206    0.45701301802751   14.41588873017321
H         9.12882585721658    2.18188180601264   14.22773310795075
C         7.77548170049079    1.70790956967256   15.82686047213685
H         7.96935219220530    2.61767528836294   16.40037266813467
H         6.92792913922273    1.91031120905391   15.16692486535034
C         7.39267802610775    0.58029369627499   16.78308748727085
H         8.19000343408317    0.42676846319364   17.51256031519419
H         7.27347652617740   -0.34723098703377   16.21760882636168
C         6.09588769509467    0.88226982044719   17.53084815154861
H         6.20708430412128    1.82038942222911   18.07981211820061
H         5.28511947556511    1.01549779437664   16.81063602625139
C         5.73097119606404   -0.23266284999725   18.50352400890101
H         4.80795051395629    0.00216237704017   19.02858686843632
H         6.51978260051258   -0.36889214235561   19.24076490002424
H         5.59420311245044   -1.17258790424667   17.97248549773049
C        16.86558614285338    2.86294722942390   15.37995058907406
C        16.74596951089258    3.36568241022336   16.67937480006308
H        17.35293159611472    4.20741773038271   16.97556981143269
C        15.86535884815851    2.76407270925334   17.55082506414191
H        15.75435854293615    3.13902042886407   18.55775219864000
C        15.13564030764589    1.65514293764396   17.13867115024748
H        14.47079339860915    1.16540708668432   17.83633939376639
C        15.23827868260332    1.17054738612130   15.84199647766510
H        14.64978898711313    0.30363780613006   15.56845827240569
C        16.07681825398389    1.77165516425515   14.90979009719088
C        18.94271178760033    2.92434517408827   12.56948683678637
C        19.51766395328647    4.18354835675784   12.39959337823282
H        19.13892978371017    5.01400640519914   12.97601184322542
C        20.53604683209352    4.34758258936626   11.48069873095436
H        20.97190608759732    5.32451953045909   11.33266283704175
C        20.99791308005432    3.26616093740943   10.74580137557441
H        21.78911802881137    3.40494036493915   10.02381435800082
C        20.45102725249192    2.00608349439403   10.93952998151895
H        20.82668132427432    1.16187756606887   10.37980475938627
C        19.42483555177157    1.82818222007036   11.84543833372383
H        18.99674969401049    0.84314642100582   12.03173539839553

