139
CSD_code = UXIROJ | q = 0 | S = 0 | Stoichiometry = C66H53BF15HfN3 | MND = 4
Hf        8.21641510920472    6.26747587349221    5.41353686944187
F         4.02582299731783    4.52717307167081    5.27704925581556
F         2.82166561898896    3.10812144765951    7.18914424879457
F         2.93049804487124    0.36546339766049    7.16048581661467
F         4.33459492109743   -0.88465978330241    5.16524489592305
F         5.56155991522214    0.51911982152448    3.27939449592593
F         3.86922860053824    1.82473945324030    1.50743544805148
F         4.46692243772163    0.57715486654022   -0.77497284110118
F         6.93829756561782    0.88987586163903   -1.92036550144351
F         8.76278606900005    2.54604696903519   -0.70405589490141
F         8.16990259789978    3.80644748309448    1.52765004492824
F         6.13427333762897    5.80387477678575    1.30953942339420
F         4.47046373078132    7.53982438562087    0.19837457177489
F         1.75702340765371    7.32360779049901    0.59305097287838
F         0.81385110787229    5.26050072386494    2.13128203637316
F         2.44973947053994    3.53875758783354    3.25102743165269
N         6.70010976654260    5.91579170957788    6.62986949803183
N         7.20042651003181    7.87957430459875    4.84123045342736
N         9.07803675806585    4.52718602973309    4.33361483763135
C         5.73877933121968    6.99869363010705    6.57867271606410
H         5.95525253167952    7.75393380645982    7.35250368391893
H         4.71845249211498    6.62547970779200    6.74309588395335
C         5.81135982222197    7.66374126086436    5.19323836731323
H         5.30667432505457    7.00913168223805    4.45301604642012
H         5.25614462001232    8.61328971287298    5.21874496358612
C         6.40531536035296    4.85153616963075    7.55252543193915
H         5.39106712324137    4.45704886476476    7.36625253011018
C         7.40276570970264    3.73264226252619    7.36860395911174
C         8.76410644238880    4.00088696090469    7.49726869441180
H         9.07424222795262    5.00623763371837    7.75159082229963
C         9.69168818801796    2.96709416888096    7.47387521889234
C         9.24961107108438    1.66587904722577    7.26777498992166
H         9.96988969596645    0.86018287270538    7.25663637169566
C         7.90210788448594    1.37955641696251    7.11663198254469
C         6.98798816593176    2.42476508774911    7.17576481729493
H         5.93433479290923    2.20281813560174    7.10669321997696
C        11.14552230109250    3.22330848558673    7.73878575776021
H        11.41248172475202    2.82702944374987    8.71833209910881
H        11.36708107247727    4.28760540295663    7.73326066921823
H        11.76992728710708    2.72161594042022    7.00164989057552
C         7.42913115008202   -0.02427756814719    6.90598807339809
H         8.18003718165665   -0.74130830331687    7.22707902879273
H         7.22416048574279   -0.20016522146442    5.84995456041693
H         6.51137204813160   -0.20660728529756    7.46015009072535
C         7.41528129860759    8.18889067001148    3.44572411883405
H         6.79181513705454    7.55052487680563    2.79217006779463
C         8.87419524134640    7.92362433089115    3.13012417302805
C         9.85893902952030    8.75340759183136    3.66788846614828
H         9.57172593437300    9.54440962280525    4.34506474533437
C        11.18595928973989    8.63165177000301    3.28076322318540
C        11.52756149693903    7.65540951699011    2.35162099569003
H        12.55574487955127    7.57203063978706    2.02865698857163
C        10.57204282884605    6.80589246859722    1.81478963841131
C         9.24513504811068    6.94375014011692    2.21545531630107
H         8.49860491643439    6.32948160011299    1.73457920471880
C        12.22327808813516    9.57054005292686    3.81644295959500
H        11.95716452247508    9.92486187326805    4.80957745514951
H        12.30299881992336   10.43750638818677    3.16069023941088
H        13.19920225963522    9.09263330606967    3.85924086071862
C        10.93559039322274    5.77780491587893    0.79036136670012
H        10.60447339638414    6.10770637950228   -0.19366528073421
H        10.44115735312343    4.83266982255062    1.00082377295720
H        12.01075439571482    5.62093446257800    0.75082919359125
C         7.05355478486066    9.66535249495746    3.10578864469572
H         7.34608144952543   10.29600612905618    3.94630929992440
H         5.97007145549772    9.73602606486623    2.99173486628321
C         7.73922742882810   10.11760661741663    1.84954959654141
C         7.44878194604125    9.51406696285637    0.63150174783108
H         6.69101377213226    8.74862826763410    0.57840324524060
C         8.11696357517203    9.88948280310905   -0.51904233556915
H         7.87802130906892    9.41052841912141   -1.45691356734303
C         9.08463707946052   10.87832300742875   -0.47170314965475
H         9.60684448875979   11.17183441748062   -1.37030276140180
C         9.37210659866036   11.49494401216491    0.73312117975649
H        10.11862848265787   12.27494081394901    0.77709990055745
C         8.70497799766714   11.11511236044657    1.88390078119082
H         8.93393593934055   11.60656179139994    2.81894932694506
C         6.42022914078279    5.29224486950437    9.04883509202136
H         7.33884873088054    5.84296451385117    9.24946336170236
H         5.57359787889094    5.95921666521680    9.21643192793406
C         6.31951164780047    4.07608921030633    9.91764497416090
C         7.43739093584022    3.56921186685833   10.56760472026083
H         8.37683117056527    4.09886828415317   10.49845949764757
C         7.35770011767895    2.39825606087533   11.29940073531798
H         8.23508292216118    2.01699750006618   11.80179235722246
C         6.15824645743562    1.71289996591775   11.38639848494307
H         6.09705798995693    0.79560698263052   11.95300996479439
C         5.03590137420611    2.21262075797197   10.74787412093075
H         4.09546535570490    1.68574010751961   10.81410966949947
C         5.11650787126190    3.38640577666503   10.02125784688539
H         4.23556356486340    3.77256723436555    9.52904136216452
C         9.85977063818009    7.19103759625760    6.59452091229382
H        10.69035525820545    6.52272076137444    6.85635411037975
H        10.26282544945698    8.02555267345885    6.01022129294738
C         9.23811073876864    7.72551980763366    7.83074996255212
C         8.33349405878439    8.79200853215066    7.75329355027255
H         8.09996372790356    9.20085005587306    6.77772726215447
C         7.75007569732740    9.31329029006305    8.89163717813855
H         7.05694931974230   10.13828249681455    8.81067810096096
C         8.04926853755079    8.78757050010799   10.13999530034012
H         7.58984593813328    9.19399620175035   11.02784903076801
C         8.95181777982526    7.74375279704879   10.23770262541059
H         9.20228324326900    7.33479286617457   11.20589498833579
C         9.54514016774482    7.22523420405804    9.09920751321972
H        10.27253153520253    6.42945882119034    9.20357059158829
C        10.32144751760856    4.03255392653046    4.35137426280416
C        10.56619725003762    2.67510038751646    4.20227423057532
H        11.58079373393997    2.31002022766881    4.19449334539045
C         9.49292057765216    1.81274897361884    4.06125859587958
H         9.65065597175483    0.74962047044176    3.96726447070924
C         8.21497722301332    2.33634267030602    3.99768016287235
H         7.37470222839859    1.69382807059346    3.82623655935077
C         8.02869980085753    3.71001997728319    4.09585248236843
C        11.45868668258762    4.99430259100689    4.48803321947484
H        11.10223437690456    6.02291086711518    4.51408808646678
H        12.12566012093903    4.88232301360462    3.63439393237273
H        12.03724552258127    4.77939877662065    5.38475092468249
C         6.72248366477063    4.40299813186412    3.88099394407020
H         6.96078025234441    5.35121576160844    3.38462388210807
H         6.31477553777170    4.65936431504889    4.86810882643492
C         4.82116516563078    2.59810459157881    4.16015979348647
C         4.11323290121809    3.18319653824044    5.20915193684572
C         3.46965652004916    2.46648859809111    6.20729244531601
C         3.52497522897623    1.07793244128742    6.19857235237737
C         4.23402414845472    0.45054374523614    5.18506494659708
C         4.86013010507273    1.21084525051631    4.20134290105183
C         6.00929736803129    2.81097611435990    1.68715190216101
C         5.10082397972133    1.99788328767978    1.00761854783453
C         5.38723257037549    1.34805462033307   -0.18642540715664
C         6.63509796557365    1.51047755996567   -0.77643461515127
C         7.55322595461116    2.34468226431639   -0.15788366358406
C         7.22451314482528    2.97968398834173    1.03531228063439
C         4.40533351606331    4.63222982271093    2.43090028164328
C         4.82056980034740    5.66030270518974    1.58867844487601
C         3.96841803011021    6.56793188557822    0.97425904616288
C         2.59857791195860    6.45854651953709    1.16518223657818
C         2.12905928208770    5.41598631575505    1.95086171383061
C         3.01991128129031    4.52768980924927    2.55050971510558
B         5.52254577822970    3.58149970478791    3.05267146721620

