99
CSD_code = UXIRID | q = 0 | S = 0 | Stoichiometry = C46H49HfN3 | MND = 6
Hf        7.40911656444190    4.71109774088234   10.59653278623795
N         5.90145661938729    3.04730800801962   11.01788340734963
N         8.51093957283925    2.90738002990860   10.74147676309635
N         6.94734962999960    4.55927316703954   13.14064611811381
C         6.39719146716437    1.71412896242450   11.12342843411788
H         5.72772140639303    0.97092906441479   10.66484676123001
H         6.49500044443444    1.47832894837071   12.19185278383775
C         7.79326440945387    1.67746451494582   10.46993653272102
H         8.33061299552754    0.80218327413970   10.87052916221469
H         7.64750688110176    1.50707257843790    9.38785556766661
C         4.68877506814635    3.35547959344412   10.78413704949377
H         3.90828511972983    2.59410329709708   10.66319243373913
C         4.31235447324371    4.74930418516239   10.71915181074349
C         5.34291440451868    5.72664628504392   10.72386242752959
C         4.88402214045486    7.05282520647517   10.62918560555249
C         3.53155764797677    7.36843577913272   10.57466178349884
H         3.22775604464066    8.40634734469401   10.51368695664155
C         2.54497492028642    6.38606916325723   10.57964013091596
C         2.95077167770760    5.06846961134531   10.64095803119362
H         2.21506195845820    4.27427484188742   10.62691395717972
C         5.87775341128115    8.18474759993965   10.59396102285644
H         6.17422071146676    8.46177897323051   11.60683552041398
H         5.44692615343573    9.06531621227529   10.12088728335706
H         6.77013529386455    7.88705869167946   10.04512294095459
C         1.09625733341942    6.76577940033996   10.49986434639282
H         0.83624606517146    7.45447365353988   11.30311908365105
H         0.45989070271556    5.88721240081093   10.57454258930856
H         0.88694840445479    7.26463082755089    9.55378389508251
C         9.93701602993314    2.82550318974654   10.48777275841342
H        10.32771675781876    3.82606367251059   10.71118463937882
C        10.27757805488201    2.53587656949497    9.03682225308303
C        10.16471057989735    1.27154739458364    8.46971946804392
H         9.87675018968093    0.42295399104195    9.07341901397634
C        10.41693552633900    1.06214771963767    7.12029093633767
C        10.80011644712788    2.13642625612293    6.33088308758571
H        10.99692487443652    1.98104201092215    5.27894416834186
C        10.93810389284434    3.40649740136533    6.87439505913281
C        10.67323766775228    3.59139908032544    8.22340150419000
H        10.79162201611526    4.57424495580355    8.65427339620322
C        10.29728670404814   -0.31038762453438    6.52598969865607
H        11.27826730520167   -0.78524936673640    6.47918220245545
H         9.90243451904455   -0.25907709364312    5.51335658992000
H         9.64494433721629   -0.94009539885535    7.12697719938878
C        11.34013023498396    4.56413647111955    6.01123079871534
H        12.14568857558096    4.28214879180942    5.33527790703167
H        11.66384928109726    5.40227701304596    6.62323130114544
H        10.49286183023071    4.88833929180129    5.40542051943573
C        10.69285266370152    1.84663238830277   11.44737422078055
H        10.16052929323584    1.81391923769952   12.40088192875605
H        10.71401167826571    0.84063970581873   11.02912702817195
C        12.08623721032075    2.34854280128957   11.65265368134567
C        13.05286983288109    2.17339123528171   10.66818783246092
H        12.80258366602696    1.62644373232175    9.77093810638484
C        14.32130129976473    2.70036427472146   10.82367149080434
H        15.06003860492819    2.55903314696800   10.04785359473935
C        14.64673332198711    3.40993577061866   11.96770127594774
H        15.63777297536391    3.82275064171227   12.08876872883404
C        13.69399134996223    3.58748361649691   12.95583414141182
H        13.94012276177437    4.14068007885191   13.85131543741035
C        12.42393837491200    3.06294530337969   12.79631857106752
H        11.68241390780856    3.20931705231208   13.57097204553620
C         8.87896051848807    6.20457383278202   11.50180398334172
H         8.30134827487274    7.12249926315417   11.66034314663216
H         9.22649387258227    5.84941457326983   12.48027978624516
C        10.03974030120381    6.48320594720725   10.64620942979520
C         9.91941104106093    7.23841627378121    9.46985192214360
H         8.95303356828846    7.64595140420068    9.20063872530322
C        11.00783432944874    7.48228793683016    8.65691006000174
H        10.88254487014794    8.06870221583371    7.75675799115449
C        12.26032616561931    6.98358660694578    8.98532961920306
H        13.11031689948010    7.17312650735162    8.34620911355644
C        12.40930171549646    6.25287896534381   10.15315090104465
H        13.37915071509963    5.86618457143099   10.43286341723661
C        11.32280313316054    6.01957621640244   10.97301872620692
H        11.47014910122092    5.47184895955693   11.89444432061129
C         7.46229090851434    5.10689232799225    8.36797061174079
H         7.08162924792672    6.11089036276833    8.15015432039788
H         8.46487634792565    4.98808749909907    7.94961137693848
C         6.54736339628343    4.08320595227145    7.86246785805170
C         7.01542286881718    2.84171329664526    7.40296662941150
H         8.08158952555062    2.67161357563037    7.35106984745299
C         6.14443922215417    1.85308510826178    6.99072930976006
H         6.53745251900030    0.90613329308396    6.64538625367138
C         4.77486412658374    2.06893126280089    7.00391503630228
H         4.09473084282028    1.29226819729947    6.68536664558132
C         4.29340180005471    3.30848282244860    7.39555901623610
H         3.23013043491046    3.50585794382721    7.37093898891373
C         5.16054818111004    4.30184197208069    7.80455431389543
H         4.76740681951367    5.27580335787692    8.06621740469347
C         7.74080240445131    3.65310114306311   13.70701278528906
H         8.49149485146218    3.23411493279029   13.04422459628831
C         7.61576830848913    3.25791461780086   15.02924660622341
H         8.28280453010353    2.51884351444954   15.44580661441377
C         6.61819376826546    3.83179122401044   15.80320115185213
H         6.48902642475884    3.54867394457703   16.83747557967176
C         5.79158536987189    4.77814824104767   15.21873316659474
H         5.00381694248693    5.25181131422237   15.78322751972319
C         5.99661926110767    5.10865389986528   13.88764439289025
H         5.37284410478361    5.84249425519528   13.39294306135112

