140
CSD_code = UXITIF | q = 0 | S = 0 | Stoichiometry = C73H64N2Ni | MND = 5
Ni        7.01170851669914   15.67678465689663   13.78662331567303
C         8.94613655825956   15.09546253479393   14.24271491443532
N         9.47860997598325   14.85798126873964   15.46789893940641
N         9.97176232345703   14.86484311384966   13.38484744450700
C        10.79491731030274   14.48392484715347   15.37087233491198
H        11.38383516176059   14.22687137897353   16.22509621183179
C         9.33872676587869   15.93659820947662   17.63999167384008
C         8.72639366084516   16.04716408025790   18.88358520858163
H         9.10082821925741   16.77747057215634   19.58669081035490
C         7.64299543115634   15.25943709338762   19.23000745326052
C         7.15111393946222   14.35482134329730   18.29731890505142
H         6.29864864777334   13.74569081976158   18.55793100937485
C         8.83533363975447   15.01256766764945   16.72269221004230
C         7.72072617478886   14.22544450626408   17.04254930712495
C         4.65758321848247   13.51930396052238   16.10860703032594
H         4.78175172637626   14.45926049463619   15.58885889435636
C         5.78413686116128   12.76365315556086   16.40662826779255
C         9.97172907393167   10.73241415694903   16.11042023005398
H        10.81942612455837   10.48398812855650   16.73348572551827
C         9.68930453217328    9.97291391841846   14.98797259449849
H        10.31263137323759    9.12961914446699   14.72810039052321
C         8.59503929780906   10.29520514554738   14.20161989196524
H         8.36726435329108    9.70797929700680   13.32409737750787
C         8.07368540086097   12.14511130425075   15.66122463143864
C         7.14457014570946   13.28412022611348   16.00823906767516
H         6.98754655069489   13.89522835460102   15.09053936343981
C         7.79599768832565   11.37111697523079   14.53888667693997
H         6.93244805474340   11.60706552637608   13.93415015770599
C         9.16863335592249   11.80918015521664   16.44662329221101
H         9.39103394002944   12.38265426219345   17.33567185810821
C         3.39737674246909   13.08206730970982   16.47036654475826
H         2.52875087499760   13.67869209998331   16.23109083195021
C         5.62741134241757   11.55850994784100   17.07916020883589
H         6.49592803762314   10.96253974705547   17.32131797202929
C         6.99527728931081   15.37560671208596   20.57539999066353
H         7.49475638565165   16.12384977586181   21.18558493727553
H         7.02809346066040   14.41910936148686   21.09576911500450
H         5.94862164142349   15.65651987884367   20.46648612503888
C        10.37552256180815   18.19868687633948   17.91763455187580
C        10.53081293195409   16.81268604689537   17.31714441589282
H        10.57490162040452   16.95595794309754   16.22931784898094
C        11.82659934269447   16.16087266370520   17.75172095527969
C        12.96453858888880   16.31304218604326   16.96625446697704
H        12.89969186835314   16.87488989261503   16.04581654046967
C        14.25272161287040   15.02366562558855   18.52562251317994
H        15.19165747387752   14.58288224165952   18.82641525928110
C         9.20320641129398   18.90699777350643   17.67425850977840
H         8.41662048391705   18.44593841401244   17.09706157000415
C        11.92108316512690   15.43121989559499   18.93012838150765
H        11.04887561501547   15.29854166692921   19.55277375975455
C        13.12551050871184   14.86590507924710   19.31289922562467
H        13.18229615364374   14.30076700002848   20.23197143085848
C        14.16792565993788   15.74995184806334   17.34949005816691
H        15.04173979349452   15.87750792326936   16.72735693121116
C         9.03240017117720   20.18579418116003   18.16886937821684
H         8.11506652063385   20.72011267778015   17.96841968163633
C        11.37403567068939   18.80279063955283   18.66795551780206
H        12.29448635407378   18.27538557230397   18.87018329850025
C        11.10916366705196   14.50148240921662   14.06042062262324
H        12.03454567257593   14.30351848903256   13.56336019383486
C        10.19906145985049   13.76481497292323   11.23063890373366
C         9.64095380185579   16.12765373725906   11.31969538962770
C         9.94312139413289   15.03134986232201    9.18276034444067
C        10.19750692366190   13.84136779140481    9.84277770819073
H        10.38530226785829   12.94459780479966    9.26967506529908
C         9.66503555384986   16.16443490822782    9.93572394454108
H         9.45423550423475   17.09333460948497    9.42751057331473
C         9.92862892785097   14.91940636638091   11.96800789617348
C         8.55508748473334   11.32146655155275   10.78178333057655
H         7.96786205714348   12.18606511448724   11.05024673603354
C         9.90386745924307   11.28166827837584   11.12007872041252
C        12.92324047667192   12.68981360458358   11.20662087525445
H        12.60316219500704   13.19264287803864   10.30613117270945
C        10.64742223564710   10.16702994349784   10.76010143352786
H        11.69622474938181   10.11063345359753   11.01123808132400
C        10.49483106967666   12.44067989988210   11.90307824664311
H        10.00066405348124   12.42886034161491   12.88364446109204
C        10.05555347793645    9.11640833295162   10.07810437651511
H        10.64965510373402    8.25604473344817    9.80571157058728
C        14.70150327984391   11.84586221866550   12.58207994288946
H        15.75554153610473   11.68702895445196   12.75571168848261
C        12.41950082195881   11.61496260417817   13.28380780547945
H        11.69368014189067   11.27902013535826   14.00999736422886
C         7.96417069020738   10.27435207951707   10.10101801483786
H         6.91495296699107   10.32330028237709    9.84812059337898
C        11.98038603368758   12.25689533179017   12.13052632297715
C        13.76845912354080   11.41015113609679   13.50814217549682
H        14.09224771665590   10.90990950045311   14.40913074988351
C        14.27402439335646   12.48673947367856   11.43236086320039
H        14.99499616820050   12.83004995592256   10.70458494170485
C         8.71371391911475    9.16448865810225    9.74694928695462
H         8.25386106297487    8.34361838021272    9.21658928040306
C         8.69761923302812   18.45140049578448   11.27967893193282
C        10.42266864519406   17.86523217157999   12.97189432226101
C        12.48628275806157   18.92911105036897   14.51863531132683
H        13.28491482653222   19.34314851578659   15.11689935183997
C        10.15816579548682   18.80176001968697   13.96629160422233
H         9.14177725211063   19.13135541814199   14.12575023036198
C        12.76210321885272   18.00299549164303   13.52732020262427
H        13.78090395110367   17.69017145842924   13.34633970486058
C        11.17781745140486   19.32986085591426   14.73521908825495
H        10.95360598125365   20.05248579022155   15.50609018514060
C        11.73858250564983   17.47664082738935   12.75738266998485
H        11.97093611562249   16.76743191520612   11.97522809460233
C         9.27688183047741   17.34925950531817   12.13404538623162
H         8.46188769051929   17.02810405342407   12.82188981746292
C         9.48729291627318   19.46816715491878   10.75836107331662
H        10.54660252072411   19.48761661736200   10.97199246546807
C         7.33927938016470   18.43873625144595   10.99028999195654
H         6.72684478195945   17.64411324605899   11.39349296671802
C         6.81768076481709   17.09068341614247   15.22047411704081
H         6.73908313614365   16.64069627090595   16.20588933083802
H         7.61303453761626   17.82144022730180   15.11095461683840
C         6.71520486838197   14.40983850589684   12.23721651657457
H         7.29706259961176   14.70844974635080   11.37003721478052
H         6.88068188938124   13.39084497117335   12.57322332767934
C         5.52536974144310   15.04142294949456   12.51487433020449
H         4.75642588111333   14.52586260934697   13.08546478900343
H         5.15654680381332   15.82662575166623   11.86202980070375
C         9.97520005086739   15.10615288467109    7.68724264994728
H         9.85752771332954   14.11931295831911    7.24626308126585
H        10.92874246730855   15.51782235606983    7.35459311602270
H         9.18541568879232   15.75687040574238    7.31820573425043
C         5.71285253380207   17.14751054890699   14.40326578809391
H         5.64302128659716   17.91467294734845   13.63570336588181
H         4.75837984114650   16.75894900033449   14.74503404980990
C         4.36573817728099   11.11794507048497   17.43926540835803
H         4.25524320347544   10.17754124374284   17.95989332075381
C         3.24832588129231   11.87686026968334   17.13636518029580
H         2.26475094769106   11.52997464284121   17.41762308692220
C         7.56904766029683   20.43520897631523    9.68602449532082
H         7.13208707723405   21.20726613362043    9.06969602303621
C         6.77624014003003   19.42179162805182   10.19863724592192
H         5.71771991952566   19.40137756988440    9.98219532681784
C         8.92419012473799   20.45502386320430    9.96799992972123
H         9.54750655333050   21.24266005561866    9.56961596529574
C        10.03496939311576   20.78166032771942   18.91632399984572
H         9.90485606981244   21.78188266847744   19.30260001435378
C        11.20383384991516   20.08516058115589   19.16367918190156
H        11.99200464770198   20.54008050840180   19.74616370858752

