59
CSD_code = UXOBAM | q = 0 | S = 0 | Stoichiometry = C25H20BrN8O4Re | MND = 6
Re        1.97839954706006    6.47995947937457    3.49163508701268
Br        1.98853954401175    7.63542563442762    1.19340515740067
C         6.48910909043987    1.30271634834314    3.11487105010212
C         6.26878365354430    1.69939042634442    1.62136332791401
H         7.15293035520949    2.27432121502880    1.32967546819098
H         6.21095323940345    0.79072997396010    1.01860222432579
C         3.99720539559824    1.93945501504292    0.92244737763249
H         3.84879102401497    0.93972025756655    1.36057438933986
H         4.10927053228145    1.82117604143026   -0.16686301309570
C         5.01893144158577    2.78696850997992    4.49841383452719
H         4.16676052327384    2.13955072725426    4.45636629353105
C         5.18498188293432    4.02705133424277    5.06088301855697
H         4.45870884503583    4.60961446295102    5.58903801621865
C         6.51857937849567    4.36622018550295    4.78113650547996
H         7.05199138934702    5.25657806611132    5.04473377828660
C         5.67383240415893   -0.40996015249249    4.72792195655598
H         6.33750852716886   -0.08734539861783    5.50362526593657
C         4.74943298407650   -1.42188917240393    4.68963696226029
H         4.50596958448582   -2.11549755168352    5.46696298747987
C         4.19712267947175   -1.34513262260576    3.40303012808956
H         3.43587975750959   -1.95611880258116    2.96063516548729
C         8.67224097891654    1.00778571446095    4.35184543795834
H         8.37936497810781    1.54741327284028    5.22794674364016
C         9.84407837176798    0.37099041723502    4.03481066044015
H        10.71699042876912    0.26950447760455    4.64516186556055
C         9.64399879677998   -0.11528592682350    2.73348859226877
H        10.31707826843920   -0.67463567851398    2.11542113264319
C        -1.06117208450796    7.10863031910514    3.47094349477742
H        -0.76289709875645    7.85906949013744    4.19184661739548
C        -2.35606470613998    7.07610739127134    2.99081808605181
H        -3.07531053795166    7.80237609100729    3.33205502322152
C        -2.69501767327610    6.10557618359899    2.05929170272517
H        -3.69040440577995    6.05716975655389    1.64595176652648
C        -1.72796508573310    5.20232138272676    1.66475690723685
H        -1.96462993699654    4.44588572418751    0.93544792027564
C        -0.44199270707058    5.29206706096230    2.19655288863407
C         0.64593882054539    4.38400593255803    1.82234676098815
C         0.47294319125588    3.28233061562743    0.98373574884256
H        -0.49732282179571    3.05345057132564    0.57559992004857
C         1.55099278268783    2.47987840092597    0.67696640396458
H         1.43123157870482    1.62353231485603    0.03074518908349
C         2.79989063257238    2.79116036914670    1.21041636548395
C         2.89020974921393    3.90442307720957    2.03225573873950
H         3.84929867312104    4.17609519452912    2.45049415894467
C         3.92774824119252    6.64223114417680    3.48365789902480
C         1.85809574910287    8.22510575779147    4.35904432400724
C         1.85985015346503    5.51702064352717    5.16785868788746
N         7.11752926078963    3.41167244689247    4.10510855364593
N         6.21054120874806    2.44597708237923    3.95055365138412
N         4.74254091004654   -0.36565063714145    2.71325443838357
N         5.63565845960782    0.20430624060763    3.52128317923490
N         8.44853100439362    0.20240911754682    2.28896291299475
N         7.86384226815903    0.89324563923804    3.27127876339318
N        -0.11891550484056    6.25151254513589    3.08568533051558
N         1.85339529085326    4.67513230944763    2.34193262218777
O         5.16028937683653    2.53711163617648    1.46198173555169
O         5.05565204301633    6.77788906907586    3.35688775491074
O         1.74136802307031    9.27666058529764    4.79857990545558
O         1.76851154358207    4.93369029018152    6.15383613470911

