59
CSD_code = UXOBEQ | q = 0 | S = 0 | Stoichiometry = C21H29BClN3NiO3 | MND = 4
Ni        7.97687233954334    2.75183186431207    7.38964386176271
Cl        9.02579248357421    3.43667024388085    8.92588732099807
O         6.11114763578644    1.12551541731092    4.30206163669515
O         3.99819237345424    1.85962221877590    8.14860370463910
O         5.38151137456577    5.37640131837316    5.67750641705647
N         7.12775554554691    4.45525020527070    6.65225614938674
N         7.46140275800582    1.86402735088543    5.86477838263204
N         6.18913513406669    2.05278348101218    8.32625439297687
C         5.80368066533559    1.48414718441052    9.61810509195003
C         5.94696367660835    4.28187938909389    6.17020094906646
C         4.27440589861660    1.31310544633273    9.43765232529175
H         3.95948396436688    0.26542242753758    9.44456424368106
H         3.69718402514673    1.86628294879376   10.18214325127743
C         5.14781782455321    2.24095211821646    7.59811866745929
C         8.80459279308156   -0.15465282862007    6.05810083431065
H         9.30848450442861    0.29998862937440    6.91480695187916
H         9.50210359843707   -0.81791465536651    5.55194811014867
H         7.96167552501766   -0.73611534579161    6.42684951963844
C         8.32038864131481    0.95015051378023    5.11705340861022
C         7.34209847852196    0.44586765274122    4.03163493679079
H         7.66323534306253    0.70182973257762    3.01851671207826
H         7.16191573070893   -0.63097579540038    4.08980291255905
C         6.29955567775138    6.46245561411467    5.80697929576176
H         5.81298664194110    7.26463017517697    6.36612192468484
H         6.55067395988179    6.82342813004420    4.80515105958333
C         6.53557209358092    0.15961439732009    9.82215424089618
H         6.27726642355735   -0.54397590464277    9.03295395907935
H         6.27696044081765   -0.27450456176639   10.78454094378956
H         7.60834988004371    0.34045700647610    9.79193010630481
C         2.77951180476240    3.79042335456500    6.09878423985900
H         3.06391862546047    4.29911552478268    7.00887316897385
C         7.51613142397964    5.86483482638037    6.55499441574623
C         2.02335477205023    2.50955308211011    3.78378953525848
H         1.73413096377188    2.00259235622347    2.87310498183063
C         9.50288333317180    1.73612259482791    4.54745049997648
H         9.15302367439887    2.49747429004702    3.85285847518265
H        10.19534759190785    1.07443941614177    4.03252735992971
H        10.02919763806026    2.23346192981372    5.36504773958066
C         3.71650176197217    2.98414892478338    5.45295979063576
C         6.28102550896310    1.90493561551352    5.36602814202192
C         1.11274604522563    3.31404921210065    4.44378755158129
H         0.11152509049131    3.43991997803508    4.05551985142100
C         6.14012184774346    2.46676261338803   10.73905233289616
H         7.20992680799745    2.65801552443943   10.75174478545201
H         5.83716176593479    2.05792171676137   11.70000484934172
H         5.62809214969749    3.41229006650965   10.57410212374158
C         3.30477005668563    2.35038486646627    4.28472791519420
H         3.99825010002960    1.71663198158138    3.75349036283124
C         8.82148049245874    5.97051661746534    5.77072219256508
H         9.58628950087638    5.38945200661593    6.28393160581591
H         9.14650747928781    7.00563363150827    5.70741086584692
H         8.69611593121224    5.57310425389362    4.76539774635620
C         1.49806724518720    3.95641050966157    5.60796093063975
H         0.79451327906210    4.58835853617251    6.13283143514561
C         7.67080503699939    6.46659105352746    7.95121695854386
H         6.74419637599503    6.35747828998065    8.51048910116659
H         7.92206527797071    7.52182165275169    7.87655160600682
H         8.45787799683607    5.94847299181848    8.49251569879367
B         5.18105499050240    2.84710820789121    6.08640242668086

