95
CSD_code = UXOMOL | q = 0 | S = 0 | Stoichiometry = C48H32N10O4Zn | MND = 4
Zn       -2.14832307661965    9.21638314194426    6.66215053736301
O        -3.38525273081456    8.26181893465677    5.34756941836347
O        -1.75856275719387    9.52661253817699    4.62582095761375
O        -1.11429459762595    7.53324653212724    7.21690223029283
O        -2.68150143924906    8.43959182848286    8.43152824281730
N        -3.52778648423526   10.80356392198411    6.65181141199724
N        -5.69479622919431   10.92798020997118    6.20001448094839
N        -4.99547776500662   11.51796802787890    5.22431197018123
N        -7.04406777629791    7.06887310477323   -0.50390463373476
N       -11.29612809697768   15.59208134185597    5.29143093351823
N        -0.53183837692550   10.39363828545830    7.20212060757220
N         0.93480823136223   12.02344613248053    7.49598547943980
N         1.57311138367819   10.85192452879942    7.40552361292047
N         6.58911644330823   13.34821921477759    2.29677706576169
N         5.28465746194601   13.65864076726936   13.27353788597227
C        -2.69456165255786    8.72126381979935    4.40986936297713
C        -3.02081200485833    8.32853882265737    3.00953274553645
C        -3.64714578118196    7.11202232640369    2.76349912499345
H        -3.89422823318173    6.47844344418379    3.60176910122474
C        -3.92500591194878    6.72847400315593    1.46439468917864
H        -4.40151754444560    5.77944717101901    1.26826583930010
C        -2.68929477824057    9.16327882116932    1.94921118054276
H        -2.19383638808651   10.10039061241160    2.15629553529262
C        -2.98652335843368    8.78448632134923    0.65294787217142
H        -2.73297307471132    9.43552626271823   -0.17133855229480
C        -3.59786083568700    7.56504204779700    0.40906497846404
H        -3.82187304525052    7.26464651743651   -0.60377558274308
C        -1.86520638919532    7.51010757325981    8.22167283990071
C        -1.76618527204817    6.38297623290692    9.18776696617135
C        -2.52543500567909    6.39463587658721   10.35290638462813
H        -3.17921822606511    7.23347639409322   10.53619913736359
C        -2.43373925923558    5.34385183221725   11.24654264944215
H        -3.02338562784530    5.35124638938365   12.15173695922689
C        -0.91905868276575    5.31195564022251    8.92334174379292
H        -0.34538754655562    5.31791077434614    8.00881560184868
C        -0.83196762709463    4.26271106743027    9.81922355711907
H        -0.17689444593764    3.42858243729047    9.61296919007476
C        -1.58779215360786    4.27848544535290   10.98087538937861
H        -1.51937840308489    3.45699928079914   11.67942749720118
C        -4.78834408715956   10.50849342046964    7.04055113184938
H        -5.00863274438327    9.98242819700241    7.94562882250039
C        -3.69374337126209   11.43624330438673    5.50850443284287
H        -2.90769891471504   11.82079938631865    4.89209889470451
C        -5.59301053997139   12.01732580290433    4.00825546480099
H        -4.85419631563979   12.68775407602540    3.55262536431591
C        -6.85688577629829   12.79965793207417    4.30053890803005
C        -7.96728744215435   12.16795919460004    4.84945522120947
H        -7.92329268344968   11.11744253399120    5.08388322468262
C        -9.11690336335663   12.88542378684830    5.11232031621184
H        -9.97849382636118   12.39932209113514    5.54429112793117
C        -6.91294656696638   14.15685583110210    4.00663297500708
H        -6.05421258069322   14.65392602461766    3.57842899680497
C        -8.06041493251198   14.88301916992580    4.25845753681144
H        -8.10450965853899   15.93746689152430    4.03045851954923
C        -9.16912644955110   14.24755478388331    4.81585311349741
C       -10.34567376920710   14.98811932630484    5.07970396143451
C        -5.88997064226763   10.89002537929305    3.03647797598868
C        -5.88463438330735   11.16906007251088    1.67396534708399
H        -5.64920377547429   12.16629689348922    1.33138093815255
C        -6.17905741297711   10.18345065691517    0.75532280878426
H        -6.17201710136297   10.39852205835822   -0.30254493900088
C        -6.19489429086961    9.60779414730413    3.47437465893192
H        -6.19056122580538    9.37088424674780    4.52732603714166
C        -6.49081759251914    8.61345840678744    2.56280389682287
H        -6.72484161866829    7.61674788330341    2.90315841298731
C        -6.48516440014096    8.89729595011765    1.19893042183055
C        -6.78870961803094    7.88307579393887    0.26107754102117
C         0.67819890170429    9.87701026425429    7.22653919147871
H         0.89666925355041    8.83477581775369    7.11858831505828
C        -0.32892935771943   11.71462370630172    7.36912152649033
H        -1.11798407127662   12.43640906744380    7.40205482157814
C         3.00739098263106   10.71954425605281    7.51558610069633
H         3.21024656519368    9.64343725981294    7.56173257571520
C         3.75153419187258   11.30469356911303    6.33137310371492
C         5.01759180191850   10.80532928366505    6.04082687127145
H         5.42615104938294   10.00165206680766    6.63570412690343
C         5.75809068924253   11.32852331707867    5.00104246760804
H         6.73975004375728   10.94008439705124    4.77568792462550
C         3.23296885318036   12.34285003256161    5.56828185615066
H         2.25426101293117   12.74111053997056    5.78890429790251
C         3.96324904889732   12.87066670060164    4.52075441834821
H         3.55905046632152   13.67416153732175    3.92350223994241
C         5.23030907013183   12.36646681320356    4.23260940505068
C         5.98135293404813   12.90790115438084    3.16257511820108
C         3.50336615159683   11.37212443003758    8.79304132789457
C         4.07700624818218   10.59613470214475    9.79252220288849
H         4.16167399912086    9.52642860870354    9.66662072813741
C         4.54051940378421   11.18180265020493   10.95464459960615
H         4.98633297526295   10.58023651336794   11.73238617197009
C         3.39409679743383   12.74760825842992    8.96461515572024
H         2.93999116428961   13.34779547540142    8.19317064596947
C         3.84802928991146   13.34250532865115   10.12444855599821
H         3.76108279402789   14.40952378827579   10.26324356431347
C         4.42689976619894   12.56086030714601   11.12455034947836
C         4.89956211549346   13.16744928790352   12.31271681353367

