70
CSD_code = UXOROP | q = 0 | S = 0 | Stoichiometry = C34H32CuIP2 | MND = 3
I        11.70353883335849    5.11466200541308    4.17253187422365
Cu       11.19952075406548    3.59819960658892    2.29890865772565
P         9.44983367701369    2.24869109494052    1.72437895113712
P        12.07562027340942    2.95048070345909    0.30415400206998
C         9.89752534251394    0.49503856033509    1.89747042364555
C        10.22839039874068    0.03069282274647    3.17876747687976
C        10.67001259607198   -1.27773833099946    3.31517701551970
H        10.93616681898028   -1.64329784304679    4.29677127437484
C        10.76946216057848   -2.11704526428229    2.21965670925801
H        11.11671671255203   -3.13133944870164    2.34863331046261
C        10.41653705646550   -1.65982606643399    0.96182445295662
H        10.47831209833140   -2.31485693935552    0.10572545069633
C         9.98910940346757   -0.35603123937256    0.80046247436191
H         9.71875362743961    0.00270106751115   -0.18341211093402
C         7.69014092454377    2.26794764059263    2.19569726473561
C         7.07939970850038    3.51847187559557    2.36152619708645
C         5.75291088319509    3.56082306521864    2.76340025900708
H         5.27069067053908    4.51903395615635    2.89347942022791
C         5.04388253428875    2.39666702131867    3.00738145477380
H         4.01259539060052    2.45145774863222    3.32284918333306
C         5.65655852097819    1.16497685952995    2.85167655001379
H         5.10755027709469    0.25480321337713    3.04307878272324
C         6.97827132800164    1.10015924915454    2.45110230289873
H         7.45972338768774    0.13933319090625    2.32882284069525
C         9.38299055955681    2.47675270810151   -0.08186211015174
C         8.20444861091864    2.39047057222455   -0.81572490319628
H         7.28274573408169    2.12156494110878   -0.31768944597141
C         8.21103693121302    2.65007488939319   -2.17430483932118
H         7.29295495947342    2.57797489604617   -2.73848451135821
C         9.38964791320372    3.00995234227994   -2.81087852586435
H         9.38960926380285    3.22106601434901   -3.87015644019810
C        10.56746511446039    3.10430042957943   -2.09149800616740
H        11.48523565061359    3.39804261833184   -2.58455679393935
C        10.57649403082823    2.83562663750570   -0.72694718603579
C        12.71488595163969    1.24426382537455    0.16834667095462
C        13.42182094381493    0.70421092656796    1.24836675126211
C        13.87027599135185   -0.60598643465819    1.15798028585319
H        14.40885788120904   -1.03678660802413    1.98982083496571
C        13.64530593249738   -1.36170072758899    0.02137903253874
H        14.00705393942282   -2.37796723067490   -0.02910817466134
C        12.96463014787556   -0.81352995921985   -1.05241050390723
H        12.79814586948147   -1.39482391469903   -1.94746075849625
C        12.49371449327630    0.48290911921633   -0.97531075323732
H        11.95649550425025    0.91053247202570   -1.81101930405722
C        13.22182199962467    3.90123063924693   -0.73989987794486
C        12.97931533648437    5.27444755447337   -0.89846877585095
C        13.88471149000599    6.02758197088539   -1.63118284727878
H        13.70404918071920    7.08472173859801   -1.76403343508349
C        15.01622098788300    5.45064745433115   -2.18158082967293
H        15.70873633992645    6.05675959066313   -2.74634470704365
C        15.26531721208960    4.10154520785384   -1.99592934311584
H        16.15353302453475    3.64871200292463   -2.41094273587962
C        14.37575677556358    3.33116239628760   -1.27119254785258
H        14.57473808110857    2.27926498336617   -1.11993784322863
C        10.06762418851088    0.91115653779020    4.37636282875001
H        10.61853143191314    0.52168877225856    5.22927868902333
H         9.01327867725597    0.98131732515664    4.65113473821662
H        10.41365221918417    1.92775938766875    4.17122159931919
C         7.85484141222883    4.77330809108956    2.11587226226231
H         8.66497871808595    4.86052641380885    2.84311534418751
H         7.22082259356612    5.65154901906455    2.20837287219643
H         8.29706220955501    4.76727197028177    1.11696587338289
C        13.69197836702407    1.52331797486451    2.47033910671301
H        14.41427179356602    1.03336887882852    3.11871962428782
H        12.77124297449916    1.66763188261493    3.04040918492468
H        14.08016547003596    2.50733599660616    2.19894765472105
C        11.76985390672068    5.91241223821020   -0.29325363633689
H        11.84954786696322    6.99649858389022   -0.31510521687871
H        11.65524692302715    5.59638555443579    0.74771331569433
H        10.86556201853196    5.62214576829318   -0.83202683439668

