70
CSD_code = UXOREF | q = 0 | S = 0 | Stoichiometry = C34H32ClCuP2 | MND = 3
Cu        6.32578106976207    1.58414601140196    2.85324592017405
Cl        4.75882085876815    0.14201217008659    3.05288261032379
P         6.65364606095908    3.51856763732842    1.70793298676413
P         8.49916065404603    1.78393019298684    3.48687548585566
C         5.82719024678321    4.13235975885629    0.20948048208801
C         5.47280664500920    3.18474116804146   -0.76243621530275
C         4.78449729602278    3.61596545086198   -1.88662677005491
C         4.43924431265733    4.94753767361697   -2.04671632900115
C         4.77604714659355    5.87381957113465   -1.07438644680158
C         5.46258943483451    5.46660602904285    0.05458241222570
C         6.75453837541046    4.99293281817264    2.76891798297979
C         5.69012570426014    5.23254778348189    3.64908669658528
C         5.77863368593182    6.31216824611153    4.51577469381089
C         6.88039067050210    7.14985049690072    4.50439554531841
C         7.91504620628872    6.92259793924327    3.61405858735242
C         7.85637232546020    5.84143649482800    2.75504190355365
C         8.38036700455783    3.29942468506177    1.17383474479087
C         8.87486026098280    3.83361354466182   -0.01202326784663
C        10.18236370796951    3.59360425025132   -0.39487710039098
C        11.00778802368001    2.81102170698699    0.39881827792175
C        10.52712811781903    2.26830854348785    1.57706481554242
C         9.21640815960144    2.50784604766164    1.97792483222794
C         9.69234306687984    0.48975439578933    3.94032292708940
C         9.62567958782273   -0.72207407864459    3.23627435413622
C        10.48002871897390   -1.75000780000275    3.60644266089597
C        11.37112370460496   -1.59687614939678    4.65538515292966
C        11.41718262385233   -0.40509344417588    5.35850163284056
C        10.57525355710498    0.63362932369355    5.00670162915780
C         8.80235225477441    3.08831893298470    4.71977022586778
C         8.03259432329290    3.07076944893676    5.89086849626326
C         8.20473613114208    4.09478805931995    6.81111351422473
C         9.12880684058679    5.10226655440329    6.59577833070156
C         9.90560030183907    5.09715792992747    5.45053827713967
C         9.73561876243676    4.09825689512216    4.51067200781208
C         5.83045304586598    1.74544615305326   -0.57726054170260
C         4.47679748589883    4.36063647745676    3.62262488042980
C         8.64996070035517   -0.89160222906481    2.11691516845334
C         7.07756964819643    1.95155593034870    6.15243460937988
H         4.50759148081809    2.89710158237130   -2.64455034997936
H         3.90102321677916    5.26101072331390   -2.92893926196943
H         4.50267361827102    6.91193013177906   -1.19263886620499
H         5.72379267410759    6.18593026538082    0.81855437293138
H         4.96929919357085    6.50263875836595    5.20608250411174
H         6.92762362603270    7.98564342262514    5.18660393828841
H         8.76860498772482    7.58354309780331    3.59033950355397
H         8.66633529517610    5.65804262988803    2.06281180660197
H         8.22703430375859    4.43525772126852   -0.63536820330399
H        10.55797734855918    4.01413805949113   -1.31599134414940
H        12.02704985431014    2.62091670897087    0.09654544427310
H        11.16693030389169    1.64978720208757    2.19224222146741
H        10.44131015978532   -2.68769847735344    3.07058514878855
H        12.02545158983880   -2.41151853509231    4.92826327023808
H        12.10549124056995   -0.28436896624828    6.18192702028837
H        10.60489834582285    1.56428869412944    5.55641128857881
H         7.60993082822924    4.09887011053296    7.71332446460384
H         9.24785177431118    5.88816854639068    7.32678895130441
H        10.64038295792894    5.87134930983288    5.28685938880049
H        10.33673131478380    4.09587532949229    3.61203141649490
H         6.91334677488876    1.62254720430270   -0.50972461879722
H         5.46375082189069    1.14136058482036   -1.40344739786011
H         5.39445608617408    1.36359801273666    0.35127724775405
H         3.98196644714429    4.43411759203857    2.65213970397998
H         3.76891683145573    4.64764029705300    4.39616962484629
H         4.74537768792025    3.30968779077279    3.76673196873532
H         8.69167062204391   -1.89919459524365    1.71066537563403
H         8.85839121501973   -0.18319635564396    1.31258188880937
H         7.63134545857643   -0.70236601770451    2.47058145297089
H         6.52006732902145    2.11655200238525    7.07090326820638
H         7.61937321274018    1.00762669900340    6.23792033750779
H         6.36754667732681    1.84015585047916    5.32748325975937

