63
CSD_code = UXORIK | q = 0 | S = 0 | Stoichiometry = C26H32N4Ni | MND = 4
Ni        2.48504235152773   16.25479778247612    3.24744901226004
N         3.31662491845550   17.57580734662883    4.53383643120497
N         4.21098363604730   16.60385514681354    2.25401930454637
N         5.31791802386514   14.90517955765332    4.89420719738027
N         2.69729489860911   19.57682797884440    1.93724094159153
C         1.68536759749436   14.95591200187567    2.09512544479085
C         2.16006713950747   14.68719302847274    0.80796502409791
H         3.00410555372831   15.22790471432314    0.39279302473046
C         1.56913505293349   13.71514743331753    0.01284676142259
H         1.96170034567292   13.52830219226055   -0.97841165963199
C         0.48793396572446   12.98915341358864    0.47449277004551
H         0.03222148492643   12.23407997034420   -0.15154610154655
C        -0.00808838598377   13.23780585280760    1.74242163910437
H        -0.85711445692040   12.67643379244116    2.10754668060815
C         0.57793830425851   14.20688011422985    2.53716683703895
C         0.15193685073699   14.56227224179445    3.93750209595887
C         0.80181371626524   15.94262103631321    4.17591664757147
H         0.91587166006159   16.12483294986675    5.25736261417230
H         0.10340680453780   16.70597324802386    3.79179904606483
C        -1.36827877933931   14.64454794347144    4.10884268759145
H        -1.82372445204433   13.65966898948509    4.03117899517001
H        -1.80078975950895   15.28532115059869    3.34342035492265
H        -1.61207442807196   15.05595958862577    5.08693487931797
C         0.71604317842339   13.51713831978793    4.90773241826273
H         1.79591503822087   13.44369414516777    4.78805496372640
H         0.28379366170433   12.53923619567911    4.70552811310816
H         0.49331032137379   13.79082422217995    5.93761724998832
C         3.23870417591882   18.88482312675621    4.29194480416337
C         4.07411134786609   19.79534647968863    4.92792804753939
H         3.97292113179884   20.85146704036445    4.73176785865191
C         5.01495876458522   19.33024207607693    5.83042448499739
H         5.67353091682858   20.01647826395121    6.34255262361772
C         5.08443011492677   17.96964785021439    6.07522414351097
H         5.78530852290549   17.57411351577552    6.79368304522997
C         4.22197318723146   17.11518566377736    5.39872273876848
C         4.27049803175643   15.61839806342469    5.60026067506828
H         4.39514048537207   15.40129770198269    6.66720510486730
H         3.30870524070274   15.20672504061117    5.25637634441406
C         5.11115122258507   14.71537248844034    3.47094139703158
H         4.07303526353778   14.37249096265265    3.32849162334576
H         5.79558407114268   13.92393027325614    3.14687446979964
C         5.30979420662332   15.93527890826478    2.60287422678111
C         6.57219536782202   16.34744658532498    2.19315932840693
H         7.44500111149155   15.77627683981413    2.46889003371477
C         6.68746265645648   17.48216189416822    1.40849498569324
H         7.65606591225409   17.82316825173558    1.07313635289381
C         5.53681854686758   18.16124850960109    1.04506685867826
H         5.58788033839690   19.02943501733789    0.40667968060860
C         4.30730712089666   17.69525355623114    1.49477773370980
C         3.01291619943302   18.39727499670368    1.15424066283506
H         3.03419517607850   18.70347475579584    0.10217832571615
H         2.19214522765405   17.67513400105737    1.30121021518319
C         2.20940173676714   19.33271980837881    3.28100332231391
H         1.44465591545964   18.54755417210891    3.20913401112493
H         1.73992169114890   20.25955639517854    3.62863582366124
C         6.66359549531504   15.26045792671725    5.27021086271537
H         6.75239763941800   15.19559382302386    6.35500315297498
H         6.97111254776528   16.27019473471776    4.95498313142759
H         7.35127585514053   14.53817083777687    4.82933252663472
C         3.63558444300167   20.66413833050450    1.81530766354646
H         3.78710712513963   20.87784991131717    0.75692341393504
H         4.61736545128876   20.47034516459093    2.27581920586226
H         3.20529351621862   21.55057667561040    2.28249774708610

