80
CSD_code = UXOVOU | q = 0 | S = 0 | Stoichiometry = C40H26CdN4O9 | MND = 6
Cd        2.46032358017795   10.85695636589334   11.80273342005098
N         3.28315913039070   11.23738534031861    9.73922296271714
N         1.20396578016171    9.59680088375816   10.39975644662935
N         3.62789511650288   12.80736877222920   12.50995352221421
N         4.29204840606982   10.22262960811743   13.02411539656899
O         1.59756010624472    8.69067670877912   13.49878114933628
H         2.00495151937471    8.28900988471576   14.26998296426816
H         1.24643269877029    9.54501932833708   13.80317174541432
O         0.78142021176681   12.27611311104165   11.79037347373385
O         1.42812679825638   11.41815442672996   13.70180047373801
O        -3.39709380196876   15.08704112960692   12.22952710843069
H        -4.13657265452499   15.61533551995490   11.89042921072672
O        -3.22773462573033   16.80276411110420   13.64069541733866
O        -3.05193968952835   15.32894523118181   18.39507845217083
O        -2.27486621574918   13.42055481462471   17.46909560802907
O         4.13548356134305   15.97121548067506   17.82610975193396
H         5.01993626303554   16.26757000931409   18.09321631856568
O         3.77794024330014   16.34184757206517   19.99084342701819
C         3.25190082194867   14.04341119215488   12.26878860873136
H         2.85148780151598   14.23636346900160   11.28080612860764
C         3.35396313991541   15.07450419282163   13.21091314221751
H         3.02441712007894   16.06933053109745   12.95677178593232
C         3.87657002538940   14.79279450640681   14.44896352612288
H         3.99056897988415   15.55892396932902   15.20230007585019
C         4.27676625701302   13.47649754458141   14.74084569311275
C         4.12249402856760   12.50616860963499   13.72313897127991
C         4.81158543527954   13.09876114168606   16.00240785949481
H         4.88003755126829   13.85483045033084   16.76953176092620
C         5.20998234357290   11.82268963219665   16.23408543369231
H         5.62178322908249   11.53629047781399   17.19036051284612
C         5.07875200759461   10.81911094032099   15.23337849047934
C         5.47644768598682    9.48606661803962   15.43831222212345
H         5.91909407697614    9.20014533116669   16.38096864472790
C         5.28991716429153    8.56762332690021   14.42895370550059
H         5.59320628840391    7.53949537901135   14.55029762164249
C         4.67976811590293    8.97842161977330   13.24382544780391
H         4.49615402214738    8.27282951927804   12.44317435362647
C         4.50510634753281   11.14483005047722   13.98199910152004
C         4.30570489326164   12.01663997431815    9.42467789386504
H         4.98554359871959   12.25848108402011   10.23195579286800
C         4.51618764690888   12.50729617546178    8.13718672934918
H         5.36655542414119   13.13936159719178    7.93428125206309
C         3.62504012529412   12.17767339042294    7.14132585946163
H         3.74984174597480   12.54345522007383    6.13308385375856
C         2.52895437334526   11.34697412417704    7.44743425569000
C         2.40397368555459   10.89593707199356    8.78389106313771
C         1.56689011635497   10.96286106218993    6.47796163081536
H         1.68561188603033   11.32511855677359    5.46779500429948
C         0.51775334898266   10.16320159972399    6.81195760766886
H        -0.21583880799007    9.87780889013025    6.07288838051252
C         0.35983304434894    9.68416649865642    8.13672267315572
C        -0.71181478645248    8.85437429798372    8.52177512057200
H        -1.45384232218869    8.57334091103689    7.78850513099128
C        -0.79048066122144    8.42071684305473    9.81986713734827
H        -1.59740024769641    7.78533135803435   10.14897835415363
C         0.19661958899752    8.81664548291662   10.73193283805905
H         0.17105398089209    8.47587224705649   11.75826021368125
C         1.30162405587929   10.03911584220231    9.13464825506034
C         0.76109627748961   12.26240249000059   13.04324323439709
C        -0.00542951519694   13.29895253406493   13.78416286525129
C        -1.05732758620979   13.97211313588752   13.17984385638891
H        -1.35058048918797   13.71633492704404   12.17382503207555
C        -1.72096134599973   14.96963872210803   13.88570316586521
C        -1.32796588872208   15.29661210370562   15.18007106623921
H        -1.85922150537201   16.07436129527391   15.70839437823796
C        -0.27246837383165   14.62357519043531   15.78514472160873
C         0.38306623852737   13.62348987188128   15.07938121280016
H         1.19500500045196   13.07501697400826   15.53543580983074
C         0.16922438551424   14.97806364562467   17.14432275366409
C        -0.72977198029225   15.00454574328946   18.21022298903578
C        -0.30441870332518   15.35919023160308   19.48126990809495
H        -1.02331925092013   15.38309531404627   20.28614605214911
C         1.01886668492945   15.68371312938396   19.70582640619224
H         1.36874952329665   15.96633515398001   20.68731893378137
C         1.93267442830416   15.65192021433283   18.65003966110656
C         1.49960914358948   15.29628105852400   17.37475432754321
H         2.19666922095146   15.28019886521653   16.55142193725333
C        -2.21791065027188   14.52916856604373   17.99401662728453
C         3.32891656736111   16.01850915276030   18.91856952010558
C        -2.84045173986041   15.72263265293666   13.27564656048977

