41
CSD_code = UXUJOO | q = 0 | S = 0 | Stoichiometry = C12H14CdN4O10 | MND = 6
Cd       10.77380377447852    8.14124982787581   -0.00059436773153
O        11.65935401346742   10.06604014733306    0.40679607002528
O        11.77210465963714   11.61886394207579    1.99208144343454
O         9.72354798104939   10.76578085099052    5.83447425790418
O        10.93854554454914   11.97391945032649    4.41276309020253
H        11.31094100824529   11.93326127199093    3.46157106527183
O         8.49823573019813    8.63441539651941   -0.77574915147578
N        10.06965246978500    8.46255278799056    1.98446821596156
N         9.39105972108759    8.71312036499492    4.03957479224519
C         8.74394690074051    6.57170952045287    2.89781021687302
H         7.66455088364244    6.66431732865445    3.01349296915704
H         9.11399759702946    5.92561916352007    3.69195024574099
H         8.97052825137460    6.11703002798637    1.93426504327784
C         9.39586217549858    7.89886922492278    2.96724861205820
C        10.52296330374107    9.67228693431816    2.43114871905118
C        11.37907605804729   10.53756003950058    1.54244064125075
C        10.10009242642975    9.84631143756355    3.73080726092193
C        10.24640830155211   10.92022217009951    4.75436158733443
H         8.96900055751561    8.56994833442039    4.94704538031841
H         8.30627680834132    7.68511755824825   -0.80390497282970
H         7.81985646355795    9.03884856574325   -0.22390738193552
O         9.88758523149158    6.21592164731053   -0.40755291559877
O         9.77525011170805    4.66232611372240   -1.99210336695849
O        11.82414333697330    5.51386243848495   -5.83458574076857
O        10.60881912516266    4.30637715053681   -4.41260215297133
H        10.23590547564906    4.34761983290167   -3.46163969658457
O        13.04814043738779    7.64610447061613    0.77845560122283
N        11.47835942729657    7.81833793690491   -1.98529493355330
N        12.15726931557029    7.56680333457607   -4.04018593449627
C        12.80520394328858    9.70824774918151   -2.89906706700468
H        13.88460083866520    9.61490972786732   -3.01442916407860
H        12.43569615120895   10.35418604657091   -3.69363004396991
H        12.57862377608318   10.16344238821900   -1.93573306173445
C        12.15260598023618    8.38139950082691   -2.96812701106652
C        11.02468000063275    6.60861760441887   -2.43167486686810
C        10.16843629609236    5.74369376206028   -1.54277124121033
C        11.44753309797382    6.43410231430860   -3.73127161070819
C        11.30039510666939    5.36024631884183   -4.75478655388151
H        12.57949222555563    7.70953847013147   -4.94765103028296
H        13.24315852656055    8.59472946723048    0.80574901723597
H        13.72769696582964    7.23808937976536    0.23075803622775

