53
CSD_code = UXUNOR | q = 0 | S = 0 | Stoichiometry = C20H25F3IrNO3 | MND = 8
Ir       -0.08784346691446    2.31334027006701    8.12557689164762
F         0.77773730911257    4.96745537548456    4.08510400848500
F        -0.62083526085062    6.42418953142352    4.83021035839860
F         1.35825524935216    6.30569555583526    5.67551174940027
O         1.82652569514622    1.85222634984006    8.62220407586015
O         0.65811264571815    3.60840392616631    6.47489476344933
O        -1.21133880045729    4.75943809391814    6.84558516823135
N         0.51097972996873    3.96486771147672    9.21280817594581
C        -1.47611387202284    1.17345679192130    9.32889251141029
C        -2.34568986841133    1.97989046372054    8.49023308100085
C        -2.08481707259144    1.64774587281553    7.15361048713766
C        -1.06197393160642    0.61929003044584    7.12754076959245
C        -0.77889839632541    0.24954303332199    8.47215598620283
C        -1.56225223410392    1.06517139357604   10.81915763519330
C        -3.39838526350130    2.93714867744474    8.94126613134423
C        -2.82120123662080    2.18273396560322    5.97345550493807
C        -0.61280647985923   -0.11590797485984    5.90482236095989
C         0.10774172835683   -0.86600976954414    8.91974667976571
C        -0.29821905421998    4.95963019914231    9.57021866144422
C         0.17196572988992    6.15459873325777   10.07757352682842
C         1.54168432526685    6.32184823065139   10.22150570930463
C         2.37780418068992    5.27942779628295    9.86944855128469
C         1.83495975136020    4.10354492335480    9.36583507757115
C         2.66404937924057    2.90164931000320    8.94471983939650
C         3.55721526841719    2.45334950199106   10.12285675271418
C         3.54602262951028    3.30680302087772    7.74352078016347
C        -0.15081067684513    4.54326310682601    6.28486342648947
C         0.33633072853102    5.56478302627261    5.20100999593238
H        -0.61584517347128    0.72612513464859   11.23188750670456
H        -2.33835716134182    0.34819961519994   11.09348323961105
H        -1.81011265610904    2.02350233348399   11.26941449593348
H        -3.30109006323716    3.16717788938661    9.99936337122647
H        -4.38690387676656    2.50665142674425    8.77418205325104
H        -3.33614900521474    3.85958974050858    8.36505738633134
H        -2.93860415907876    3.26140496247851    6.05465053520955
H        -3.81508254354080    1.73391976774879    5.92756009401777
H        -2.29745775837498    1.95809595289854    5.04837204655129
H        -0.48028039633096    0.56932320614478    5.07096857688179
H        -1.35585406400940   -0.86360045804935    5.62030647323679
H         0.33591837204628   -0.61222090241977    6.08800125339303
H         1.13524754101503   -0.50900192229780    8.99038413488929
H         0.07379803890657   -1.68564854277022    8.20656704433907
H        -0.20241114949108   -1.23249443101681    9.89502221835801
H        -1.35464977768588    4.80060933783498    9.41909144060259
H        -0.51859611751208    6.93929095721471   10.34037937081316
H         1.94695592815820    7.24756764710425   10.60101140576561
H         3.44645888001314    5.37210946454098    9.97364172266010
H         2.94117642158481    2.25345459060263   10.99576200013281
H         4.30003571438231    3.20677507772432   10.36555765857193
H         4.05975858489280    1.53434324465453    9.83641953380289
H         4.15552223021189    2.45345465125674    7.46057978600005
H         4.18839973624536    4.14804136718383    7.98777200863282
H         2.90442371847564    3.56615274188843    6.90673598299386

