68
CSD_code = UXUQEK | q = 0 | S = 0 | Stoichiometry = C32H23ClF4IrN7 | MND = 6
Ir        3.67401262538735    8.61005250854678    0.07327483699698
Cl        6.05990807579558    8.20100998587469   -0.01001550352430
N         3.64102620322678    7.71838650266922   -1.74684186958892
C         4.19159141600946    7.36006887586260   -2.68707136552046
C         4.88942126305706    6.90628094662751   -3.84748640896290
H         4.71012941030707    7.59006145040383   -4.67638959844213
H         4.55677446363579    5.90511221224805   -4.11955561921208
H         5.95491411969100    6.88519918174450   -3.61617000614303
N         4.05561597785714   10.39551886854210   -0.66921064338589
N         4.06532299110542   10.87818375130555   -1.86247923556570
N         4.37872608887471   12.15855830368804   -1.77397229007600
C         4.57278292787056   12.51953027776575   -0.48672671847250
H         4.84075882161377   13.50942636145518   -0.18467314208320
C         4.36311470237708   11.36630208261744    0.23695700989573
C         4.35100767873641   10.95911876297953    1.61933704270021
C         4.68724012253237   11.77552018531380    2.68931363543711
F         5.04066552386504   13.06247866424718    2.45702567214235
C         4.66646294810786   11.31145870334917    3.98816407710034
H         4.93250149831009   11.94396418431218    4.81824372851851
C         4.29465776248681    9.99110049147086    4.17103096313088
F         4.26468509878339    9.50554064375616    5.43275952187433
C         3.94669527676896    9.15179051475826    3.12774097329098
H         3.67578798688841    8.13685414142355    3.37474708807731
C         3.96573117135544    9.61355004884548    1.81619427415910
C         4.30462751772983   13.00736661591625   -2.93119215338239
H         4.88106005039557   12.55071966103667   -3.73984852209213
H         4.74973435670956   13.97381056142898   -2.67649377051557
C         2.86281762709021   13.17716952262713   -3.36136687405856
C         2.52276321705565   13.14145958961162   -4.70566559778129
H         3.29424933682996   13.00610583859985   -5.44988410266336
C         1.20191090414509   13.27816790477297   -5.09598678166102
H         0.94837366982158   13.25150073728162   -6.14527403784501
C         0.20850932893982   13.43510763847759   -4.14498458229989
H        -0.82313273942505   13.52695665919871   -4.44850292811474
C         0.54084110862530   13.47041465271906   -2.80155052262184
H        -0.22954572868654   13.58353739705458   -2.05437405306405
C         1.86292616623885   13.35046943245716   -2.41237922901091
H         2.11250503809645   13.38696017686343   -1.36088873478290
N         3.18043609891426    6.93401907047281    1.01927831074385
N         3.87086480605728    5.96743171015212    1.50887999234805
N         3.06673413233116    5.22083252224710    2.23722632336104
C         1.80738828393896    5.71238384535833    2.22284558692780
H         0.99377622673110    5.26651947849716    2.75340512479284
C         1.87824644555849    6.83095178156395    1.42153329839957
C         0.99458564022718    7.87102692167284    0.95098705697365
C        -0.37799820913855    7.90468218587612    1.15034585774352
F        -0.97481898071242    6.90758581758070    1.84628700041623
C        -1.15671764771596    8.92888773046830    0.65044332188311
H        -2.22200425096016    8.95366380714331    0.80701578336049
C        -0.50564983604242    9.91891772018197   -0.06501578863668
F        -1.24415519262258   10.93168042966526   -0.57388410380979
C         0.86121218485802    9.91839770681274   -0.27941586738639
H         1.28753245518514   10.72266091422962   -0.85930131907198
C         1.64936971468125    8.89383376271886    0.22937492270606
C         3.60967555116714    4.17337436602056    3.06254163601012
H         4.44101005821725    3.72380859998682    2.51303045938668
H         2.83771610521054    3.42392711910703    3.24747994946326
C         4.10690972994860    4.77864382537716    4.35818274375821
C         3.57459137196081    4.39529401461519    5.57938212179978
H         2.81455259568679    3.62763385255705    5.62082193428355
C         4.01862999178662    4.99268904452465    6.74735848743750
H         3.60159457710359    4.68841065782391    7.69578061272213
C         4.98424142186288    5.98272151183125    6.69759769610573
H         5.31960643292783    6.45671412388010    7.60729505611106
C         5.51516424178937    6.37017829243842    5.47839442876174
H         6.26286701611282    7.14653618760069    5.43394234872628
C         5.08158823251719    5.76883837135206    4.31115231462175
H         5.48737679423184    6.07404059037240    3.35693017761615

