68
CSD_code = UXUQAG | q = 0 | S = 0 | Stoichiometry = C32H23ClF4IrN7 | MND = 6
Ir        9.05713340692093    2.86302256406248    0.12899904268852
Cl        9.71573399915765    2.73708753514437   -2.11828826692243
N         7.36601505489349    1.79448940518939   -0.58904750012670
N         6.31853766739308    2.09569840495978   -1.26723208113395
N         5.90246482870929    1.00320992679333   -1.88005014754249
C         6.70678177070965   -0.04283458851081   -1.59219955332312
H         6.56387533144096   -1.02134214957056   -1.99658835443215
C         7.66418038659433    0.47891290649230   -0.74761761362186
C         8.86613307909118   -0.01640568905061   -0.11453502169607
C         9.73500064525953    0.96671012827816    0.40708747110121
C        10.90982730663409    0.52571921727458    1.00657134632350
H        11.62444378667434    1.22436807900043    1.41378626751186
C        11.19251630666969   -0.82656755832011    1.07969800370400
F        12.33473434809893   -1.22360993483793    1.68243450286887
C        10.35066066079057   -1.79982203162381    0.57085114380328
H        10.59376455308682   -2.84715496240604    0.63473386912213
C         9.18820615216010   -1.36429891185364   -0.03021342347763
F         8.33299968594833   -2.28604979318911   -0.53729093546086
C         4.84239947793901    1.05670474871569   -2.84487070248259
H         4.29874922740383    1.99002796870908   -2.66486516801982
H         4.16335188365645    0.21291872107715   -2.69109039824138
C         5.39214854016930    1.03805789801552   -4.25564479719063
C         6.59781725807658    1.66045086606006   -4.55410066595317
H         7.16962889060523    2.15933560136363   -3.78494596685435
C         7.08927394118298    1.63565959037817   -5.84748925629093
H         8.03331597270825    2.11191309280805   -6.06273227115525
C         6.37925379443719    1.00034067738822   -6.85170143463511
H         6.76496509841490    0.98093759967332   -7.85994038537819
C         5.17407591427318    0.38480939119546   -6.55898351386683
H         4.61613374712142   -0.11484205708258   -7.33696658071879
C         4.68479930017936    0.39935793439134   -5.26479569301450
H         3.74721470080566   -0.08815798757624   -5.03701785814803
N         8.58196169284109    2.98166085180333    2.06900626543419
N         7.56172180010849    2.60881621065154    2.76244915331985
N         7.80174854468737    2.91315533427258    4.02421944458697
C         9.00744294958163    3.50849852695402    4.15688964502302
H         9.40009229957493    3.84115834164328    5.09343590573181
C         9.52182872787758    3.54767197304437    2.87886210874061
C        10.72966647950149    3.98613830668780    2.22532907374135
C        10.75617588611890    3.73548617594071    0.83313397617597
C        11.89563195197348    4.11875895219296    0.13664681674394
H        11.97617089415594    3.94552693557670   -0.92498397079191
C        12.94681443889956    4.72238436693139    0.80392396713167
F        14.04107319407861    5.09373988978397    0.10677687988828
C        12.93210141324581    4.97451502442779    2.16672737935753
H        13.76559699688204    5.44475903422877    2.66093131363506
C        11.80363365754251    4.59299538770939    2.86125573810987
F        11.74190595622171    4.82154560969649    4.19664696858110
C         6.80618399444091    2.69335713952279    5.03899444209587
H         7.30383012560332    2.44216859911625    5.97825530450053
H         6.19656860651982    1.84619861196661    4.71148681012593
C         5.94027771526915    3.92181892694679    5.20331802146724
C         5.28796133337731    4.44711225970413    4.09449684458675
H         5.40454679846998    3.96669110602515    3.13343052089704
C         4.50177802212042    5.57736383672428    4.22219479107070
H         3.99857323365228    5.98163587262161    3.35672850505939
C         4.35811579874843    6.18756153168936    5.45759936878277
H         3.74237937154806    7.06870529410829    5.55735624157588
C         5.00593781166902    5.66650110803012    6.56395518884029
H         4.89772613322790    6.13976551388352    7.52821074335746
C         5.79980379469408    4.53897632819342    6.43692551472105
H         6.30639351097303    4.13644657317717    7.30233995822386
N         8.28594592916645    4.67376889651604   -0.37271336057881
C         7.98171043504122    5.42885117526641   -1.18170870611118
C         7.62075236493370    6.37161578911701   -2.19223729356995
H         6.53877856177889    6.38542874628377   -2.31953937332030
H         8.09201161953736    6.06540223089338   -3.12665738707251
H         7.97152123871344    7.36627294578889   -1.91854085743132

