62
CSD_code = UXUSIQ | q = 1 | S = 0 | Stoichiometry = C29H28ClN2PRh(1+) | MND = 6
Rh       -5.49221831594873   -4.87706158906698  -11.28136094826029
Cl       -9.75492327892788   -7.28960086624388  -13.23278133194698
P        -4.06246428465607   -4.38446845851201  -12.94669826600221
N        -6.16442940220539   -6.10252378730440  -12.69909308276560
N        -7.45423664776381   -6.37102272413695  -12.58475901685180
C        -5.45510813206665   -6.50822316087545  -13.74348410932610
C        -6.05168582521367   -7.30675621504900  -14.75955310154300
C        -7.43931029774991   -7.59855510730734  -14.64100699759143
C        -8.08370477706178   -7.05469526498782  -13.49378165542585
C        -5.34930547955888   -7.83681767941190  -15.85948732994871
C        -6.00000930678952   -8.60357916264179  -16.79145062465268
C        -7.36893701496643   -8.87577455196392  -16.67164866218654
C        -8.08225760939643   -8.38314969374792  -15.60916419379206
C        -4.03803057774436   -6.04533160680427  -13.79677087719485
C        -2.32832452563930   -3.86221503512891  -12.90945684822096
C        -1.36130506177078   -4.73840880668299  -12.42055015670114
C        -0.04513505860572   -4.32925938504385  -12.31818654474670
C         0.31067703529341   -3.03958629276235  -12.68208615678368
C        -0.65381029215154   -2.15438993020841  -13.13626290229361
C        -1.97262183102166   -2.55770756166996  -13.24242809013518
C        -4.86248638895666   -3.38586167051387  -14.23363940855327
C        -4.27943864429137   -3.15065947011324  -15.47526956932647
C        -4.97137556255266   -2.42812281613900  -16.42978300260414
C        -6.24106547474248   -1.94375926788895  -16.15280242049832
C        -6.82597537666000   -2.17985951728622  -14.91877180569900
C        -6.13748925623237   -2.89951834915630  -13.95923070602321
C        -6.30580198979583   -6.13865810521276   -9.66716321634079
C        -7.19273489229696   -5.10527265685246   -9.84859254637907
C        -7.31139419798486   -3.90958886501571   -8.93488741017150
C        -6.46435110511320   -2.71712355281942   -9.41920593888343
C        -5.16827334080691   -3.11891795835706  -10.07689201279164
C        -4.30212417605863   -4.09803788062602   -9.63012126633952
C        -4.49289266651400   -4.89264845663354   -8.35845275639562
C        -5.24902719815710   -6.21558552276955   -8.59284690216605
H        -4.29231948360800   -7.65232120829106  -15.96298798202028
H        -5.45210493624182   -9.00810247484307  -17.62846196255300
H        -7.85807154056018   -9.48068170564956  -17.41886445661313
H        -9.13440326677433   -8.59137415376762  -15.49880044571636
H        -3.39616693250115   -6.72094089954428  -13.22373072661887
H        -3.65847720913318   -5.97358980519650  -14.81736736744566
H        -1.64239413294750   -5.73762247083008  -12.11578982652165
H         0.70406228934661   -5.01334238423918  -11.94971213794807
H         1.33872230023986   -2.72220072566882  -12.60214814247401
H        -0.37889249007941   -1.14596407953731  -13.40501493962800
H        -2.72794791327793   -1.86596596964176  -13.58845656700316
H        -3.28582341276022   -3.52304148073569  -15.68534608576624
H        -4.52030472962555   -2.24013763807398  -17.39221190663392
H        -6.77435462187404   -1.37851735618055  -16.90143774891040
H        -7.81395565166372   -1.80052067148816  -14.70678810428163
H        -6.57927101153477   -3.09457003311595  -12.98142990078203
H        -6.54521952706490   -7.10103214747577  -10.11956356436319
H        -8.05875183559455   -5.29124970000772  -10.47952079897119
H        -7.02904210148679   -4.19719167637423   -7.92302679284783
H        -8.35593508167902   -3.59674011166471   -8.90135363433785
H        -6.24524268534896   -2.04934178872028   -8.58039096691357
H        -7.04572485187539   -2.13906658147504  -10.14268777795017
H        -4.75877389395931   -2.34954390211284  -10.73700659210287
H        -3.27281571276185   -4.05877234663935   -9.99011322395919
H        -5.01290440542761   -4.27561458430314   -7.62678273245208
H        -3.51261677706087   -5.12734441578182   -7.94137114249175
H        -4.52998723350592   -6.98772719636851   -8.87955911911401
H        -5.71531219706862   -6.54464152333899   -7.65920549502543

