107
CSD_code = UXUWAM | q = 0 | S = 0 | Stoichiometry = C50H42F10N2NiO2 | MND = 4
Ni       12.37229704984735   12.71824821896845   13.03214958592798
N        10.52693045513729   13.16416606022063   13.42153902984668
O        11.91038440218815   10.92758754397582   12.84348110262043
F        12.14794131119250    6.57872973194902   14.04861544311366
F        11.72887482316431    9.65111455402343   10.48574559738815
F        13.70365270982423    8.37424543760121    9.15779966024619
F        14.85291017070966    6.14579374785672   10.22205269484959
F        14.04139381705316    5.24148803594500   12.66980123841726
C        10.86380543614563   10.28654589052325   13.18015018511605
C         9.70271716700770   10.90774126089974   13.73694574881498
C         8.62868896786191   10.13632216531918   14.20036788166754
H         7.77254707710311   10.64249683380839   14.62350800124291
C         8.65261180575540    8.76677661252059   14.12087726512635
H         7.82952786732838    8.17719793267762   14.49080193355510
C         9.73924828835945    8.13977912160160   13.51732383415436
H         9.73256747740346    7.06632233614122   13.40085925754908
C        10.81010413634281    8.86168845002892   13.03014156521084
C        11.89352304035176    8.17068029933676   12.31960316894051
C        12.50147709965640    7.02728279641293   12.83680199445852
C        13.48359922031148    6.33566763633595   12.14097936317513
C        13.89794275231907    6.79302418803425   10.89571737936255
C        13.31433756173754    7.93521135213944   10.36053629118042
C        12.32200049792792    8.60500552465021   11.06443960040867
C        10.45788503285961   15.34108565537218   14.49560695011542
C        10.14649868183169   14.52992141418107   13.40040677431460
C         9.42903869075133   15.01062296914037   12.29484608310966
C         8.99869332550560   16.32828604644628   12.33270887999441
H         8.43386751517441   16.73611661183089   11.51030311899592
C         9.25717024975619   17.13053705582909   13.43101628891762
H         8.87597554434370   18.14082591512057   13.45676576692460
C         9.99089734221310   16.64745360836433   14.49726354672525
H        10.19247146834863   17.29125933517932   15.33818412411428
C        11.24388079942103   14.77230573154803   15.65583443814760
H        11.86411288001544   13.94412296737050   15.26995738891104
C        12.18227099897471   15.79564264117957   16.29383992292695
H        12.77153091092758   16.30646596142897   15.53652200726300
H        12.86509055192599   15.29308930707529   16.97594427359947
H        11.62778817561624   16.53766679589227   16.86271340669901
C        10.28986589432623   14.20081365164192   16.70933951043389
H         9.61153372915451   14.97517331900537   17.06189397321484
H        10.85402689294345   13.82252595180507   17.55918629342706
H         9.69882093964733   13.38412899354978   16.30021328392962
C         9.13644511849492   14.08221829919852   11.13305878562322
H         8.73501957245725   13.14889456970234   11.54960204326143
C        10.41835629062605   13.73431741702259   10.36674918034562
H        10.79082143226522   14.60279153097906    9.83316430907044
H        10.21509422606253   12.94905810953656    9.64234468175444
H        11.21135721487502   13.37705799050962   11.03706502860383
C         8.09502743418415   14.62997312341353   10.15929961288251
H         7.17701392881923   14.90007530210836   10.67687989494219
H         7.85783648007519   13.86727459436057    9.42098316827748
H         8.47433559106627   15.49946135978137    9.62790968883758
C         9.60753864644344   12.32568207464911   13.76150201787759
H         8.63924057534585   12.72644013414938   14.07378728979518
N        14.21766209908498   12.27233404698607   13.42155595997841
O        12.83421305916733   14.50890735262609   12.84346524978415
F        12.59663311785211   18.85776812960170   14.04859092137643
F        13.01574118547618   15.78537821187451   10.48573029822918
F        11.04097895502408   17.06224583110437    9.15775932279972
F         9.89170728491699   19.29069728332367   10.22199684031171
F        10.70319490106386   20.19500698994501   12.66975321712697
C        13.88078571369603   15.14995305894004   13.18014543689595
C        15.04187078492657   14.52876236903973   13.73695276055930
C        16.11589180908999   15.30018506855678   14.20038472237665
H        16.97203047783690   14.79401351916332   14.62353480403487
C        16.09196633800349   16.66973066175780   14.12089054733966
H        16.91504478793283   17.25931198772569   14.49082238649824
C        15.00533517080859   17.29672347816308   13.51732311137006
H        15.01201403557817   18.37018012343317   13.40085663366795
C        13.93448446067038   16.57481105362402   13.03013496292997
C        12.85107137380398   17.26581523066844   12.31958399399644
C        12.24311061601467   18.40921304910856   12.83677434908681
C        11.26099584051818   19.10082657526648   12.14093971367329
C        10.84666695604886   18.64346802342952   10.89567360856729
C        11.43027931562495   17.50128074546720   10.36050052063073
C        12.42260845358498   16.83148775880027   11.06441617558442
C        14.28672583746412   10.09540674503416   14.49560653971123
C        14.59810282833707   10.90658103874991   13.40041138149959
C        15.31556251182858   10.42589278997074   12.29484465498010
C        15.74591859371611    9.10823299062025   12.33269696918235
H        16.31074481387276    8.70041265892339   11.51028643340967
C        15.48745230508644    8.30597253338928   13.43100008685329
H        15.86865549713709    7.29568665027346   13.45674139196802
C        14.75372429064013    8.78904253283432   14.49725271923206
H        14.55215806767622    8.14522947944539   15.33816962619036
C        13.50072978937589   10.66417298677667   15.65584037980867
H        12.88049343140591   11.49235554049584   15.26997172675060
C        12.56234621279861    9.64082596776583   16.29383962377943
H        11.97308455933033    9.13000873882570   15.53651899943215
H        11.87952791990558   10.14336973282964   16.97595225176270
H        13.11683400803419    8.89879768010601   16.86270276089752
C        14.45474516144048   11.23566090624813   16.70934742132361
H        15.13308190415678   10.46130154573598   17.06189360758728
H        13.89058497300005   11.61393921522446   17.55919888171821
H        15.04578510954470   12.05235143462578   16.30022555218732
C        15.60814342432768   11.35430717210045   11.13306180417745
H        16.00956032745355   12.28763297654318   11.54960856000640
C        14.32622626757907   11.70219818441555   10.36675774530522
H        13.95376832737441   10.83372234605792    9.83317056040577
H        14.52947779241452   12.48746293344561    9.64235620398259
H        13.53322330443857   12.05944675929712   11.03707786514135
C        16.64956431462672   10.80656878927725   10.15929690014509
H        17.56758168843914   10.53647293769667   10.67687363336711
H        16.88674580792529   11.56927417414781    9.42098451475580
H        16.27026371312820    9.93707982732386    9.62790284359325
C        15.13705457155399   13.11082125839109   13.76150797135183
H        16.10535664018007   12.71006675651173   14.07378529733398

