69
CSD_code = UYAGOR | q = 0 | S = 0 | Stoichiometry = C30H32Cl2HgN4 | MND = 4
Hg        9.20606201993691    7.51068294536767    8.92099124987445
Cl        9.67583745604082    9.67375363056120    9.54129502181646
Cl        7.63522600398074    6.62251324413934    7.50118072966395
N         8.97252793159339    5.85622847118495   10.76247293219820
C         8.03456676295189    4.92562550283331   10.63585121211068
H         7.22965841672600    5.15562446735612    9.95047882188168
C         8.06296139721404    3.72192243095082   11.31524953899447
H         7.27735490270973    2.99788035430846   11.17429738555735
C         9.13176793532251    3.47266201486278   12.16545774924969
H         9.19646865083579    2.54010480587227   12.70697544014200
C        10.10595167623289    4.43660439150221   12.31037121924175
H        10.93701252377592    4.28391431544870   12.98059180231362
C        10.00738124440081    5.63738710140938   11.59598273418222
C        10.96967256910660    6.70635724868722   11.70502592468537
H        10.60005307477210    7.66883827187131   11.37580761987673
C        12.24653587204354    6.58751757112759   12.11235538292220
H        12.62067439904680    5.61468042232538   12.41113419870233
C        13.21901428202977    7.64798482711975   12.14510637686776
C        14.53587525727719    7.36585823623409   12.52704785897489
H        14.79550820552621    6.35515763913173   12.81236354114797
C        15.51222689775580    8.33293433224912   12.54709387464839
H        16.50905787194451    8.05262806749631   12.84636509560306
C        15.22517657386562    9.65964568493951   12.18205476826055
C        13.90100460357164    9.94473246223070   11.80245184702752
H        13.61860328873414   10.94513129328907   11.52080178207197
C        12.93309760082863    8.97164428782223   11.78416800654514
H        11.93622818638565    9.24759334726454   11.47986412675277
N        16.19328375677734   10.62373386957699   12.17814133386219
C        17.49880605728348   10.34677047145342   12.72517940988352
H        18.09514664255460   11.25571322473128   12.72193720405902
H        18.02328769098358    9.59568144969720   12.12680249027956
H        17.43219596998815    9.98660847376078   13.75686990133840
C        15.86809901633837   11.98344325730906   11.82233283838447
H        16.77753054301995   12.57922642836345   11.79844897041527
H        15.17647754969151   12.43791391077527   12.54022347898721
H        15.41470891379847   12.02257898712072   10.82934705442023
N        11.54454797015205    6.73577407801157    8.58544086943797
C        12.51109757912164    7.63474211269833    8.72590156741245
H        12.21391011845467    8.66948700582379    8.61860576507723
C        13.82454458124270    7.30108346824711    8.99916172911679
H        14.57141543188769    8.07060874951234    9.10541533582849
C        14.14400748644125    5.95808119898057    9.14597167748429
H        15.15674398225608    5.65601991896437    9.37022273810756
C        13.14911878287324    5.01676660106280    8.99327155362362
H        13.36922025000169    3.96422198893691    9.07649547205112
C        11.84137005110583    5.42756818730121    8.70482199125605
C        10.74798574674889    4.50792755878293    8.50506694192633
H         9.90650020080385    4.93092580575873    7.97204101565611
C        10.68161714310535    3.24306247636431    8.95937995350773
H        11.51455406207472    2.83625483723647    9.52189805056677
C         9.55741475979730    2.35597946534027    8.81489147384666
C         8.38055235836551    2.70171731951058    8.13699042114493
H         8.28712016298196    3.67033193411456    7.67273736031591
C         7.32221252858811    1.83193208332518    8.04855433598802
H         6.44667896331966    2.15294708067103    7.50964276844712
C         7.36790951161094    0.55376506056984    8.63440026153887
C         8.54892726100607    0.20518503967863    9.31229938633301
H         8.64401668847375   -0.76023221586774    9.78210002257124
C         9.60343967704411    1.08276511643624    9.39510080614274
H        10.49621195232217    0.77818405968153    9.92487447413328
N         6.30530989257254   -0.30277448925798    8.56647756001819
C         5.11624425465556    0.06558606313710    7.83709220240714
H         4.35899215359434   -0.70417841353193    7.96610256643325
H         5.31416093558076    0.17919020254591    6.76541575597735
H         4.70840022664900    1.00474564051727    8.21753402757634
C         6.43741141832928   -1.66348482110554    9.02654952327390
H         5.52613886450821   -2.21303905006638    8.80411377447043
H         6.59725950383412   -1.69692474351792   10.10846364641243
H         7.27192375560126   -2.17359676071267    8.53444604891338

