63
CSD_code = UYAKUB | q = 1 | S = 0 | Stoichiometry = C27H30ClN4Ru(1+) | MND = 9
Ru        2.24420456414708    1.41125466259986   12.35656880102946
Cl        1.73515599750418   -0.71753792458405   13.23465359304649
N        -3.55106294710770    1.11925201267391    9.23356923665985
H        -4.24434788337707    0.66698629886944    8.66103239066813
N        -0.01113050851881   -0.15493703565248   10.71126242949536
H         0.79598028897159   -0.49253363867677   11.24589591946240
N         0.23445040494727    1.70742293696656   11.99191292719866
N         1.57855359874673    2.05263206222004   14.29811407944633
H         1.89677628182897    1.40010175777767   15.02044888570638
H         1.96897033494554    2.97278997039448   14.51773945014350
C        -3.13562814520823    5.00192813741593   10.43906815932836
H        -2.96005002812984    6.02624645618689   10.72954604813145
C        -4.30306567671835    4.68708711096577    9.74381345621336
H        -5.01642099484936    5.46540853584886    9.52431215679311
C        -4.53668581320578    3.40016855445404    9.30891637698888
H        -5.41588820027137    3.14937019610704    8.73643020966011
C        -3.58823743669750    2.43566082420856    9.61505934082293
C        -2.42132657420633    0.54320576870936    9.70210286167145
C        -1.94268277329191   -0.76889215942267    9.41557310975930
C        -2.61505019635435   -1.72740339638613    8.64794297873212
H        -3.59381407985444   -1.50709857258106    8.25022800564663
C        -2.03347639173998   -2.94967978695372    8.40330893354847
H        -2.55535877611452   -3.68640923346805    7.81364206856823
C        -0.77145573429217   -3.24374491714715    8.91777758229965
H        -0.32868683360618   -4.20837585806468    8.72580274353643
C        -0.08994076372579   -2.31622677789938    9.67343633568972
H         0.87957432549628   -2.54447163296617   10.08905240009401
C        -0.66759032505528   -1.07224905013957    9.93226584497440
C        -0.48668052826669    1.06079725355298   11.09987355083611
C        -1.70297615616029    1.47625867673042   10.47108483798109
C        -0.33692692258413    2.63403810175343   12.94205815719057
H        -1.42737505652270    2.65772331256208   12.87824395563468
H         0.06634658781767    3.64526503003762   12.79361467712477
C         0.10577191840316    2.12315040845182   14.31896815035736
H        -0.25838456210552    2.77139499450986   15.12218196306206
H        -0.28045678648925    1.10798044903453   14.45880541643563
C        -2.42823840140425    2.71783302480583   10.37782598383524
C        -2.19738578922196    4.04230014530839   10.75360500352764
H        -1.28990209072352    4.33198465633677   11.25469550239011
C         2.78767736733132    2.81404705991267   10.62218742707788
C         2.93736550907449    1.45585469898564   10.21184074075038
H         2.47127640162650    1.12887218734591    9.28737238210526
C         3.77047400108260    0.58088241886333   10.92555018736579
H         3.92673000731026   -0.42898131903828   10.55773446475994
C         4.49627523693259    1.01519609848002   12.07198523675599
C         4.31194526882832    2.34199425004735   12.49073656681975
H         4.88842019936504    2.72609177578670   13.32518698701612
C         3.47064969767519    3.23590040079248   11.77283304350916
H         3.42676553534837    4.27852294821803   12.06919942481779
C         1.97581316342346    3.76193488449424    9.79589016787901
H         1.82457350989592    4.70707870019148   10.31192064447993
H         1.00438180556626    3.33392376577250    9.55100490561039
H         2.49556354233972    3.96380017248933    8.85873196012144
C         5.47734306111345    0.09391153344148   12.75484048436768
H         5.33210684107092   -0.91462783473920   12.35344863733487
C         6.90577544626324    0.54392425078330   12.43072380718531
H         7.61743627636007   -0.15328257008204   12.86381918871809
H         7.10310242959065    1.53304810609498   12.83814833400062
H         7.06566140940416    0.57497848701544   11.35505036423490
C         5.24612608912207    0.03407659552330   14.26595882281720
H         5.89630821813993   -0.71650577806546   14.70621620606425
H         4.21427418916049   -0.24531512832492   14.47486852134854
H         5.46269686700101    0.98779294145048   14.74191797121858

