43
CSD_code = UYAQAO | q = 0 | S = 0 | Stoichiometry = C18H14N10Zn | MND = 5
Zn        3.00280956798732    1.67772522099657    1.94570150007550
N         2.23725134236768   -0.19747459042319    1.04273810888554
N         3.82419480007888    0.45726663699664    3.39739763054721
N         5.90291454998768   -0.06684608496860    3.89862997167646
N         4.20046753960948    3.06538344809181    3.26380223083576
N         4.45068732850924    1.69001809474656    0.71523548763729
N         5.56685699235237    1.54894148092982    1.02331610849763
N         6.65862741855264    1.40461117656444    1.30832583560438
N         1.45884047620760    2.66675546387815    1.82210804811661
N         1.05294426208466    3.68826439822890    2.22592785699062
N         0.59366791682399    4.66338602873209    2.57105170608650
C         1.90341324667812    0.04317642155462   -0.21757436657626
H         1.75570504454650    1.08309470040607   -0.46791474336945
C         1.75062832420950   -0.95974488568322   -1.15958849919670
H         1.47569468901226   -0.71769713755325   -2.17339315587246
C         1.96839325583571   -2.27077253880905   -0.76831852707520
H         1.87393355815057   -3.08364687477273   -1.47313093617021
C         2.30740911417720   -2.52141369792159    0.55027120806819
H         2.47621794095516   -3.53095959354986    0.89326118361914
C         2.42358571265740   -1.45395994325024    1.43322141593330
C         2.74422134331759   -1.68961661720997    2.88968345023327
H         1.87671306874812   -1.37057488953482    3.47489261395825
H         2.92919390451961   -2.74830319689546    3.06985272572454
C         3.91684847162571   -0.87469379192418    3.31005554368674
C         5.22093804337272   -1.25268627033087    3.61863413336752
C         5.90853553139994   -2.47824336457719    3.67376898218973
H         5.36291451959947   -3.38715013726823    3.47717601109373
C         7.24124042298379   -2.48159288636825    3.95269197394645
H         7.79558267988413   -3.40496673014123    3.99741579275428
C         7.91853499228392   -1.25315919446758    4.14850922656127
H         8.98353991840796   -1.25131870005194    4.31148262367315
C         7.24861955953987   -0.07508095377660    4.11102703640109
H         7.74129914276681    0.87765583785962    4.19156464999912
C         5.00862226568591    0.94660269257304    3.76063440335391
C         5.16603135149670    2.37748715516970    3.89134859782219
C         6.16446257932418    3.02430827084173    4.62013733121762
H         6.89467928525375    2.46517075996787    5.18181902204279
C         6.17874102056025    4.40702070508711    4.64634158654642
H         6.94552492394750    4.92991839301774    5.19856508012961
C         5.19432943011337    5.10712371521213    3.96647115178060
H         5.17501204359545    6.18459216639971    3.96175008108456
C         4.21595517366862    4.38480862184651    3.30056588055308
H         3.41001724712524    4.88159069040724    2.77954403759608

