103
CSD_code = UYEJAK | q = 0 | S = 0 | Stoichiometry = C32H54B10Cl2O2S2Ti | MND = 6
Ti        3.84487619857435    0.31470530171715    4.63374124747939
Cl        3.55093230532330   -1.87167622663338    4.84390126789585
Cl        6.05854191575989    0.38563124613454    4.54214181789739
O         3.47095647814538    0.66090698875087    6.24269015817019
O         3.63126524570720    0.62631452616800    2.98900271667118
S         1.02790036067147    0.88754535000671    4.58221412932940
S         3.48473761174241    3.17006006141187    4.49725054072800
B         0.99842218805714    3.76564462211341    5.83983918826537
H         1.63615252819704    3.37613788821943    6.73998524115071
B        -0.68258380139529    3.34155426233119    5.50665673492893
H        -1.25847304314741    2.65393436252296    6.26167149138900
B        -0.86794340984487    3.08532491513153    3.76902097564139
H        -1.53539689715035    2.20092241657580    3.38599145073452
B         0.71645718348867    3.29667156638794    3.01916034087694
H         1.12263602865276    2.56649666248450    2.20033340132240
B         1.23587683862027    4.96661833869132    3.26133263014135
H         2.01622772569258    5.43529515756270    2.52264980586474
B         1.37784905720401    5.26915514476608    4.99557190302919
H         2.27793480643163    5.90418319336767    5.39685042502845
B        -0.20778757880800    5.03957472220789    5.76476966883336
H        -0.52188777200819    5.63080657948957    6.72823519190449
B        -1.36196201299685    4.62684514660825    4.46500774304789
H        -2.49411217882192    4.92937436439495    4.52594574832538
B        -0.46878632749104    4.58709150793725    2.90666418277775
H        -0.96387050493520    4.86389365836723    1.87964288628719
B        -0.06918621600411    5.80910344989051    4.14725974381363
H        -0.28367847240024    6.95068579344125    3.98049392537369
C         0.57513222130604    2.65244941516338    4.59749452896373
C         1.76452911986535    3.74068412495916    4.31023761726633
C         0.72742155160557    0.20194721228956    6.26364712393930
H        -0.35095087560785    0.19833716594959    6.42735345231440
H         1.08054569756397   -0.82971223741468    6.12963063240132
C         1.44073391351156    0.86198956167166    7.39733715614348
C         2.84024707434027    1.01457891477457    7.35525370214475
C         3.50847646433296    1.55006435076438    8.47418765081723
C         2.73832753740238    1.98428111298824    9.54403605994357
H         3.24348531964405    2.41577122223493   10.38747783462064
C         1.35232702747952    1.89582756944091    9.57701355838006
C         0.72153924047895    1.30362106470243    8.49268796522250
H        -0.35055964600588    1.18114938006048    8.48216360932236
C         5.03023027293271    1.63859101695897    8.49052797932435
C         5.49975718861944    2.60516421718210    7.39266583967492
H         6.57295696203687    2.76327780420858    7.47403624628981
H         4.99576813051421    3.56573254404769    7.49168574330058
H         5.29692252372570    2.19985546458052    6.40044263899316
C         5.62042933512486    0.23947713987381    8.25355997578485
H         5.29851726458064   -0.17941374159729    7.29877411173145
H         5.31035935941896   -0.43724435647302    9.04826171817926
H         6.70698362840354    0.29285426689899    8.24514493543410
C         5.57586052152072    2.15007745685783    9.82893764047162
H         6.66313881944725    2.13831341236047    9.79498275548577
H         5.26105410287470    1.51358052912692   10.65261770996861
H         5.25975566474997    3.17278265746586   10.02128817269290
C         0.51364126838003    2.42122656486435   10.73099562090199
C        -0.44244124497210    3.49511754131881   10.19058526681566
H        -1.11840101658510    3.08729807429175    9.44507264587454
H         0.12129700902679    4.30169543617873    9.72761323009808
H        -1.03758566790991    3.90758952952261   11.00212405422861
C         1.36007702006797    3.04999358446644   11.84085085336548
H         0.70650549191408    3.41227319519187   12.63159025858222
H         1.93183240647561    3.89506958064746   11.46551477764204
H         2.03944454094217    2.32139013689952   12.27669000757870
C        -0.28982812782637    1.26408317116963   11.34059877659747
H         0.38250694020068    0.48652874696888   11.69660409563279
H        -0.96559782358055    0.82319082285230   10.61360551193128
H        -0.88096095267438    1.62081461700123   12.18111653492572
C         4.32147725307364    3.31685171935326    2.86411449706321
H         4.43017868175562    4.38017947752715    2.64664118853962
H         5.30572062624877    2.88867372604149    3.09889890465653
C         3.69008585256917    2.59588714251832    1.71937979309542
C         3.41796503280197    1.21770450644458    1.82057339770191
C         2.91234942780523    0.53152755752155    0.69867776272501
C         2.62199955994676    1.27204603986230   -0.43870709054555
H         2.21242667549177    0.75570225004902   -1.28630047337308
C         2.82562141554766    2.64294850788026   -0.53388371382324
C         3.38885919307940    3.28504310667774    0.55919895108463
H         3.59824383302385    4.34309011211676    0.52526956656128
C         2.69606087466411   -0.97637216937623    0.75383968213105
C         4.01738516959503   -1.66383479825691    1.13265152806011
H         4.38856132408597   -1.32297926398632    2.10059981888426
H         4.77673887919265   -1.45596659566628    0.38043803859607
H         3.87061197293224   -2.74017750820725    1.19175434949502
C         2.24257445162763   -1.55544616876216   -0.59139719608381
H         2.15996179830236   -2.63639757090626   -0.50105063458322
H         2.96351362444973   -1.34041703911639   -1.37670253739739
H         1.26753806137270   -1.17009239128183   -0.88060137276296
C         1.61238508008914   -1.30032469041530    1.79346514446612
H         0.70835919461031   -0.72760890055684    1.59042702777321
H         1.95641322461091   -1.07165099226665    2.80293078070296
H         1.37033597785938   -2.36022775826408    1.75681876910576
C         2.44761610527508    3.45579908197050   -1.76164055563527
C         3.69704565062079    4.15618563700122   -2.31334059362434
H         3.44377003989406    4.72487268859735   -3.20531814785205
H         4.45472128516802    3.42116294969218   -2.57605386354358
H         4.12385223447139    4.84024321284393   -1.58577612941414
C         1.85069906792201    2.59767755186979   -2.88004614759203
H         0.94011915424318    2.10349600810765   -2.55064365360139
H         2.56198458067827    1.84984013917140   -3.22242954720957
H         1.59933026254212    3.23278462628047   -3.72687432525722
C         1.40101204153034    4.50123583131689   -1.34774313787617
H         0.52439202613189    4.01072364420528   -0.93103232851888
H         1.09484813126886    5.08598937504613   -2.21217298084162
H         1.79336571492656    5.18072168448727   -0.59709732103183

