89
CSD_code = UYEKUG | q = 0 | S = 0 | Stoichiometry = C38H44Cl3N3Pd | MND = 4
Pd       -0.62336898185731   11.63971530586895   13.78936452612238
Cl        0.96539663483792   11.35127768943829   12.15688859952166
Cl       -2.24356199015257   11.95554274760406   15.35810975440135
C         0.19897500111572   10.15113245936204   14.77928545504988
N         0.73487889555402   10.12527649720246   16.04821434676510
C         0.55163174753573   11.16128068120336   17.00799570104084
C         1.18471215905683   12.39275302988817   16.80970889893970
C         2.05116249425227   12.67754804083521   15.60171309818367
H         2.05322022501712   11.81296652250996   14.92543557930427
C         3.49979339075535   12.96191018962761   16.00631318466485
H         4.09163166247369   13.17388065842658   15.11918906807883
H         3.93996912405872   12.10345149561267   16.51079417670780
H         3.56028795630430   13.81836098029505   16.67373652617958
C         1.46171871210911   13.85799081812998   14.81793167891099
H         1.95865894736886   13.93416993979525   13.85157205526033
H         1.59122777614759   14.79465866282335   15.35598237281174
H         0.38049039662247   13.68729390786879   14.66664827000977
C         1.00133564732804   13.38284812058211   17.76650663296654
H         1.47855866951346   14.34192934835093   17.63812568273156
C         0.20895205642313   13.16133930950506   18.87497834961037
H         0.07224793683943   13.94468896131115   19.60560239020955
C        -0.42336076055558   11.94552728117302   19.04110800496494
H        -1.06006795932804   11.79311527028821   19.89804048343894
C        -0.26834265464397   10.92203301880906   18.11630193516723
C        -1.02417601978795    9.62904428654997   18.31417713879807
H        -0.76753512662036    8.92612098646615   17.51638492041942
C        -0.66669598034946    8.97204798686754   19.65009103562008
H        -1.15450543663906    8.00265410727941   19.72722333679982
H        -0.99857546253171    9.58444630876990   20.48402544042576
H         0.40795285539856    8.82606807364277   19.73869501738143
C        -2.52911990030388    9.89350887862999   18.22110224179007
H        -3.07632146367246    8.95360669633926   18.24958871477302
H        -2.75590652024741   10.40992606462583   17.29131523796691
H        -2.86612695422766   10.51447326129921   19.04660480030020
C         1.32254476987828    8.93565507648248   16.29051923133040
C         2.06029529544947    8.55394130088488   17.48212093375646
C         2.79928924753544    9.50550483696431   18.18828627494389
H         2.81432984144973   10.53015228395521   17.85437379488336
C         3.52068736783196    9.13894175512651   19.30760859613847
H         4.08883300247415    9.88525967116697   19.84187713512489
C         3.52038935837006    7.82341155892048   19.74223000505573
H         4.08572766965516    7.54039202657555   20.61699174500968
C         2.78884775288918    6.87332935520081   19.04880492805359
H         2.77934891038643    5.84680900161785   19.38313862563168
C         2.06334707041260    7.23113602553132   17.92882262910777
H         1.48766922164434    6.48357442687046   17.40772808732050
N         1.15909469700196    8.17971797364859   15.19363682423871
C         1.67081345831278    6.87857272834272   14.94835958195165
C         0.77987029796212    5.80137933658161   14.92563379171150
C        -0.69815947814049    5.98667011188955   15.18507353093282
H        -0.89678178248127    7.03333264795489   15.43506951280024
C        -1.16727720672243    5.13263104538773   16.36570000529278
H        -2.22142882804092    5.31916966614301   16.55660035529010
H        -0.60989027843072    5.37756331566989   17.26801289433509
H        -1.04031183824363    4.07281296938632   16.16084984922439
C        -1.49796139347220    5.65032713118428   13.92388425714891
H        -2.55489199714477    5.84106905697657   14.09274429625857
H        -1.37458741674963    4.60482053848640   13.65244171608903
H        -1.16844597527486    6.26272329984688   13.08782087950132
C         1.29245560854245    4.54053947380056   14.65198842187149
H         0.63021011143436    3.68944818304557   14.62536376543801
C         2.64097180866571    4.36228213736743   14.40846562440071
H         3.02230773112460    3.37474019987536   14.19629276602431
C         3.50132896285951    5.44296886937358   14.42612914767261
H         4.54903629569126    5.29027375227070   14.22073823935257
C         3.03528489872986    6.72365026790614   14.69342382148100
C         3.98199705462860    7.89993005360326   14.66518941946887
H         3.45257379603303    8.80652275645767   14.97041988088085
C         5.14512574698608    7.69482787986708   15.63810407196952
H         5.76187553253442    8.58986320415538   15.66877117617408
H         5.77161645479949    6.86160114509586   15.33164197572585
H         4.77370254014164    7.49765973346264   16.64209649977860
C         4.48626546651016    8.12743704779217   13.23755542208550
H         5.17044664512335    8.97198670372746   13.21707840304368
H         3.65384911650127    8.34960356771465   12.57394517612700
H         5.00669826975491    7.25001687973106   12.86188205350655
C         0.47847997195671    8.91320599734438   14.25934160893372
H         0.27079186026228    8.51341471633989   13.28512933874056
N        -1.54044429669193   12.94335253727334   12.51137665130004
C        -2.62463404089585   12.37172176974703   11.98929657511465
H        -3.03246312461716   11.50380284137644   12.50997191485544
C        -3.22808443316403   12.86256650241824   10.83997362641351
C        -2.69912215272474   13.98231447087586   10.21097683319262
H        -3.15407223119005   14.37674889630939    9.31625121883305
C        -1.57403632730700   14.56447103429984   10.77016079552586
H        -1.12391646822875   15.43389366163989   10.31792444567736
C        -1.02358627027121   14.01459346326066   11.91563065060398
H        -0.13511725208276   14.43985544787136   12.36553444587906
Cl       -4.62653011951631   12.08242207831308   10.20406189344137

