89
CSD_code = UYEKIU | q = 0 | S = 0 | Stoichiometry = C38H45Cl2N3Pd | MND = 4
Pd        7.42543256408278   13.60385179450316    2.95902420426497
Cl        8.98680676424317   15.19802815229732    2.48473956159123
Cl        5.91231356069806   11.93824815442403    3.40906113626125
C         6.51155090138445   14.73038336230758    4.29084236490934
N         5.91858047201891   15.96680133474123    4.15742578965625
C         6.08218204118030   16.80684171756193    3.01954259392765
C         6.84700802372720   17.97216474162148    3.14096080503690
C         7.56664768895926   18.35209360066637    4.41375754339233
H         7.33127168790775   17.62912653070013    5.20014891294374
C         9.07922107238781   18.29867006937666    4.18439361552095
H         9.39224684126362   19.06291499222601    3.47823810126218
H         9.35653999191723   17.32747948236137    3.78093747125515
H         9.60585429447434   18.45847901410623    5.12297013057245
C         7.13709387895160   19.73642410924360    4.90680306589415
H         7.44034358851676   20.50882921348008    4.20530593241058
H         7.60435754324902   19.94835995470865    5.86621567852473
H         6.05717989008047   19.78982244785557    5.02918598480234
C         6.98202661629260   18.77901906168326    2.01958011960899
H         7.57698776567125   19.67640677551917    2.08118124830288
C         6.38282628936209   18.44470672790984    0.82172851490061
H         6.50299976451551   19.08592283207252   -0.03888759508079
C         5.64582676508807   17.28206777830410    0.71804928198051
H         5.19543441319750   17.02129925634002   -0.22709810902517
C         5.48463992711206   16.43857356336526    1.80970873083523
C         4.68454102255549   15.16346324918184    1.65335475798168
H         4.68526397900228   14.59971239378061    2.59493086260362
C         3.22903302027508   15.45492131285184    1.28041275707646
H         3.16533226920004   16.00010909824233    0.34162008027445
H         2.73888790760519   16.04545927840807    2.05268108499890
H         2.68565521473949   14.51930874102430    1.17255808336569
C         5.35257705948804   14.27286864012355    0.59728333190703
H         4.91029361062006   13.27775352251768    0.62840194925467
H         6.43324297042502   14.20430277112733    0.81807189687616
H         5.22927173749086   14.68403271777173   -0.40253175137667
C         5.29236401642303   16.31953198095974    5.29915153720111
C         4.49364936055990   17.51138242806670    5.52383644045194
C         3.74732373286046   18.06668699909610    4.48215023815011
H         3.77050141250500   17.61440356947616    3.50409379047777
C         2.97037031663211   19.18751269682561    4.70041309653329
H         2.39788008020923   19.60440577890461    3.88570999948327
C         2.92074610272847   19.77301102762150    5.95510102399436
H         2.31217554388465   20.64862689017729    6.12216620192303
C         3.65810369470730   19.22923942397144    6.99398780809590
H         3.62863042261082   19.68152565452074    7.97393361670180
C         4.43945295496401   18.10933697558406    6.78445844283628
H         5.01912543122705   17.70619165608311    7.59891039646735
N         5.48746780185158   15.32798449222565    6.18255386708628
C         4.96310239365172   15.21313392204851    7.49619478722642
C         3.61033503511228   14.90897512835413    7.66310788585627
C         2.68815279405415   14.69811793761106    6.48598875818809
H         3.21924568168412   14.92352298530330    5.55729368313598
C         2.25783881989932   13.23033867658871    6.41856859895647
H         1.58901157809679   13.07912188323453    5.57500108131924
H         1.74257034764858   12.93135180335600    7.32798059062661
H         3.12522536893615   12.58861219711471    6.28246424793592
C         1.47621483042885   15.62915978740609    6.56203902839706
H         0.87600428470640   15.52691384813457    5.66108900046410
H         1.79583718804763   16.66621821850091    6.64725649396882
H         0.84917025453796   15.38937086090412    7.41647458173943
C         3.13495872102238   14.76794625296985    8.96040426946022
H         2.09591742797213   14.52884180281064    9.12315738832526
C         3.97580730368050   14.91806311141741   10.04614982106795
H         3.58789521458792   14.80123738777145   11.04696675469451
C         5.31362620208426   15.20854794247642    9.85733443486984
H         5.96100669349218   15.31402401351346   10.71377180678659
C         5.83428681177081   15.36161597843765    8.57961961441911
C         7.30004453550909   15.67591260556083    8.38205947476083
H         7.50123978792058   15.82374615910912    7.31663856112954
C         7.69660068587641   16.96303832259850    9.10949661093330
H         8.73975903454045   17.19269038208155    8.90555099494375
H         7.57373345811221   16.86251909160871   10.18468083738750
H         7.09136368650504   17.80211267546750    8.77129297639306
C         8.15738440007786   14.50041667636911    8.85784547633559
H         7.88356882077974   13.58996676926080    8.32998411342686
H         8.02737284836231   14.33088682248372    9.92385949367697
H         9.20770701454323   14.70522964033341    8.66563655206687
C         6.22620474624510   14.34748491341355    5.57690787686252
H         6.46622429455199   13.43715344909467    6.09252689914152
N         8.45424251026451   12.24060462359809    1.84579473249424
C         9.49265920520235   11.78654419650236    2.54962066614022
H         9.74985344369152   12.34390491123494    3.45437489323234
C        10.22433853704872   10.67730098425274    2.16464940251745
H        11.05538393717465   10.34271351491311    2.76579631926930
C         9.86833397221822   10.01085891068144    1.00160089246627
H        10.41830941789074    9.14198807773461    0.67235417675813
C         8.78866235636085   10.48508099265574    0.27501390787283
H         8.47194351471686    9.99805919666311   -0.63389932620254
C         8.10744279652933   11.60007694482891    0.73458902913229
H         7.25145803562704   11.98801043560803    0.19489801556651

