34
CSD_code = UYELIU | q = 0 | S = 0 | Stoichiometry = C16H10ClN2O3ReS | MND = 6
Re        7.63697366677004    2.29614479184567    8.62787606833458
Cl        6.45584246025853    3.21466696998601    6.83210029375653
C         6.04533346850769    1.44164116804676    9.33695548424748
O         5.06162336313427    1.00460438990304    9.72575686401869
C         8.14791871600212    0.62141095766872    7.78421673041634
O         8.42512199864535   -0.36899116803933    7.27381696067663
C         8.71395410651198    1.90218747968954   10.19455262286040
O         9.36445667449851    1.74313546868125   11.12801386525579
N         9.32409511170631    3.64849657378558    7.81102154678671
N         7.14076278986114    4.41996723020042    9.45552046140637
H         7.08482611486300    4.84950574336295    8.52390999028187
H         6.22193463013617    4.49204788675574    9.89268764832311
S        11.15230804482399    5.46716232726748    7.65501445572190
C         9.90756459001116    3.47967747255342    6.58179206040459
C         9.56622007476961    2.53876419274368    5.61036950762685
H         8.75436788191506    1.85165130157914    5.78833385712589
C        10.25901677541758    2.52476581897767    4.42045536572233
H         9.99388599624906    1.80232903619398    3.66422504107601
C        11.29169214960976    3.42762369286186    4.17206891871153
H        11.81799696948470    3.39251329790200    3.23066298673591
C        11.64468547324746    4.37264204957151    5.11326921971471
H        12.43664571542667    5.08210723436660    4.93185756503723
C        10.94499407573840    4.39240398341024    6.30817073688254
C         9.84367855664157    4.63964795862185    8.47689463485977
C         9.46362802827363    5.09901840863603    9.80235160670097
C        10.43138797238777    5.66059608394462   10.63634268053878
H        11.44324078117135    5.75670307869011   10.27155857826760
C        10.11861100681545    6.06384217091740   11.91779704717201
H        10.88362348627921    6.48558381845581   12.55005470744886
C         8.82461609576012    5.91333577086672   12.39106498281316
H         8.57454339425347    6.21606200741277   13.39597953888504
C         7.84687725838407    5.38175664411869   11.57181484007099
H         6.83613187328124    5.26881404772016   11.93772205891599
C         8.14524069916364    4.97858211130174   10.27647107320288

