49
CSD_code = UYEMIV | q = 0 | S = 0 | Stoichiometry = C24H18CdCl2N2O2 | MND = 6
Cd        3.53548926515659   -6.65539175527836   15.65483168800974
Cl        1.36393331153358   -7.32006284058789   16.31994438081066
Cl        5.12921059466687   -8.35478340438801   15.87919540395286
O         2.50016978424960   -4.21720874149762   15.69406414026471
O         5.07339752888067   -4.67707309431132   14.85732252317544
N         3.76165874832830   -5.61029116024445   17.76943675890750
N         3.37877676005479   -6.25476049466440   13.31204221814035
C         3.45389438373983   -1.56277772591319   17.83854621632288
H         4.16470401064006   -2.11866733838917   18.43166226032013
C         5.06681913564722   -1.88613352915278   14.50260913193197
H         5.88094921998813   -2.31081570965377   15.07083958250162
C         4.02922738360180   -6.41787402357933   18.78179998449382
H         4.64325482929841   -7.28108202341290   18.54666388467689
C         3.55255079325235   -6.18574253938770   20.06637428244456
H         3.78167511866026   -6.87507131751897   20.86347945610218
C         2.76936328302223   -5.06576200967321   20.29299393003740
H         2.36689642805518   -4.86163701414866   21.27420910540121
C         2.50261175600841   -4.20983804671709   19.23569904431141
H         1.88278165081058   -3.33606639642248   19.36735178351402
C         3.02076745626394   -4.52360414246056   17.98176652460727
C         2.69404466034825   -3.70229487994343   16.77881888822478
C         2.61194483020416   -2.23604344642724   16.95478317447221
C         3.40109363926315   -0.18409053498369   17.92499468571856
H         4.06092806252843    0.33682440349498   18.60249324652851
C         2.50221385489127    0.52962674290930   17.14777330904107
H         2.45782255518467    1.60554020609235   17.22773240850282
C         1.66247838440287   -0.13497041382736   16.26808828380931
H         0.96179705609849    0.42146018591127   15.66428508204444
C         1.72502263647700   -1.51051573624578   16.16096121355415
H         1.08286280628033   -2.04704266182972   15.47932537994215
C         2.88927583012604   -7.12516189516423   12.44702445295662
H         2.47917049194009   -8.03599576887173   12.86910484740219
C         2.89828792058519   -6.89699746229353   11.07626140235880
H         2.49565029423782   -7.63322801289200   10.39890924352474
C         3.44351154522897   -5.71378239091706   10.60450213605960
H         3.48218357223851   -5.50771639938230    9.54486889981335
C         3.94124407045353   -4.79415303465231   11.51501058869991
H         4.38615751087933   -3.86776543432960   11.18516151531030
C         3.88167119848530   -5.10355573206619   12.87153010081469
C         4.45083170971835   -4.20405141677586   13.92588683077853
C         4.86173100430074   -0.52157505925200   14.46097642316841
H         5.52075256690832    0.14049215935739   15.00198793397107
C         3.80506889362708   -0.00381631199593   13.72843249495714
H         3.64238198416486    1.06305459950498   13.69645536852888
C         2.95046411500896   -0.85505688848299   13.04590225659761
H         2.11760742543890   -0.45032845904075   12.49038751963468
C         3.15431143536142   -2.22208299809366   13.07774845530918
H         2.46545576829467   -2.88253373070130   12.57347643653107
C         4.22560273385915   -2.74899632249028   13.79808512233438

