85
CSD_code = UYEQIZ | q = 0 | S = 0 | Stoichiometry = C30H45F3NNiO3PS | MND = 4
Ni        7.01352247093290    3.83171861188052    2.80072975522109
S         5.72832334477783    6.32634548566244    3.53422379565467
P         8.08032296020014    4.16283917421735    0.88575369699793
F         8.08580411821231    5.25910108470508    4.33418073854772
F         8.26607088195897    7.15621484728186    3.32599130666822
F         7.54535401893797    7.08564120633695    5.35784567231988
O         5.85256946171728    5.35343188653519    2.45592899642852
O         5.00129948926374    5.87070645959917    4.68885479290418
H         5.21076469557429    3.95179224626730    4.71101551916312
O         5.45786691774094    7.64701816949266    3.06004374331352
N         5.83250748707310    3.27214082968761    4.26468726471056
C         6.26073562565604    2.28520778974013    4.94366061039643
C         7.23522639948779    1.37171956704579    4.25258188842391
C         8.06424449047688    2.27633054781497    3.32162085335317
H         8.51234669229449    1.66232345179854    2.53620986023726
H         8.87241669046660    2.74028408930552    3.90670103833295
C         6.09503936806533    1.86831188120024    6.32135016294750
C         5.18994185602990    2.28072288320307    7.28875129976349
H         4.44580429185699    3.02900189408503    7.06129455443820
C         5.26642382532867    1.70388527761639    8.54467817332879
H         4.57160133411864    2.00110150838546    9.31555585626087
C         6.23057395760740    0.74475313316824    8.82451279830856
H         6.27133092648907    0.30615852553612    9.81073782044682
C         7.14782038627827    0.34495491958555    7.86181666099385
H         7.90022274722301   -0.39371044002074    8.09644033219661
C         7.08069128193154    0.91104059350219    6.60462903436851
C         7.97802844605785    0.67913252575193    5.42063935141662
H         8.15199406162585   -0.38166111502263    5.23851478008397
H         8.94611603887228    1.15182109430355    5.60003844685930
C         6.44568183995309    0.33507140142724    3.44507881041581
H         7.12832084211787   -0.31811430098690    2.90697376798462
H         5.80943958186680    0.84641209624187    2.72630608380764
H         5.82308540578935   -0.26797980473869    4.10287915153348
C         7.49502818760180    6.47538562118716    4.17966916322305
C         7.63751774056500    2.74441753006979   -0.24078114152696
H         8.20849321305804    1.91019873400321    0.18774953833653
C         6.16174379437907    2.38026666884773   -0.07684500804156
H         5.52805097972756    3.12460893208661   -0.55549847814964
H         5.91818819327264    2.37354142312453    0.99810072552240
C         5.89996072639278    1.02398204368947   -0.72372959155596
H         6.49767439421385    0.25578999294726   -0.22804849400729
H         4.84859652902596    0.75144685788981   -0.61687207321178
C         6.27022190024468    1.08334289216031   -2.20513338078693
H         5.62313449588912    1.80558098260633   -2.70758314945627
H         6.10550760360033    0.10952456975048   -2.67045783902654
C         7.72784805870754    1.50005147763035   -2.38955596577594
H         7.96121973331640    1.56365054342251   -3.45449724121548
H         8.37832793277456    0.73940822135546   -1.95120092627310
C         8.00273106605052    2.84712064645585   -1.71819670918656
H         7.40255711251337    3.61500301320951   -2.20610823605787
H         9.05551893164620    3.10877374336170   -1.83968617100052
C         9.94625640492185    4.22087661795257    0.76795483314482
H        10.19092747399301    4.56149530628937   -0.24343274174633
C        10.66588460839383    2.89106723981795    0.98612062421089
H        10.33187229559018    2.14691095172077    0.26233979038689
H        10.45817428434279    2.51890296982926    1.98813547837582
C        12.17467949041811    3.08751132026678    0.83378187079868
H        12.68379292012260    2.13203357092029    0.97590586265704
H        12.39751083861771    3.43659362904236   -0.17739443959728
C        12.68816037667309    4.10636658282999    1.84523556426611
H        13.76368970726198    4.24693864702919    1.72117675393130
H        12.51298490813883    3.73171185057385    2.85581065839186
C        11.96226693876951    5.43516558843254    1.66588566973766
H        12.30411656799969    6.15212649223908    2.41432733361356
H        12.19713812486376    5.84520168069904    0.68030689358489
C        10.45346659441507    5.24079168636262    1.78957531086231
H         9.95001603773762    6.19956514878839    1.65657864930673
H        10.21376924281858    4.87428781322093    2.79097476853732
C         7.58681565808739    5.78874224880939    0.08644885998192
H         7.57193708287088    6.48164107679810    0.93719980810914
C         8.50643403765260    6.38755909158410   -0.97979336299438
H         9.53408287068269    6.46517849378052   -0.62601031433437
H         8.49686944037709    5.77118032611347   -1.88106561974163
C         8.02474204428620    7.80005122439468   -1.32045757483369
H         8.09450282577350    8.42246488818959   -0.42594969591010
H         8.67805353565216    8.23226012790416   -2.08261597163296
C         6.58185736290464    7.79590970743467   -1.81187597001097
H         6.51815421501704    7.23522532859287   -2.74881298768487
H         6.25777053539040    8.81851535894877   -2.01350201989687
C         5.67254847472603    7.15118481223858   -0.77112377819812
H         4.64684620445051    7.11400554574491   -1.14444963316084
H         5.67194159279045    7.74015764576436    0.14807059575967
C         6.15698456931450    5.73873218732436   -0.45733091767612
H         5.50079507409872    5.29112149866711    0.28742706782035
H         6.12434513195516    5.14381192726957   -1.37259300573426

