82
CSD_code = UYEVUR | q = 0 | S = 0 | Stoichiometry = C33H42Cl2O3RuSi | MND = 10
Ru        1.22117501704504    9.56161310812237    6.07220659252528
Cl        3.93429938409779   10.98156402572982    7.20955310561121
Cl        1.76292372410186    7.29076993041998    5.82227859642213
Si        1.81197468788357   11.71346175616833   10.09538625071797
O         1.40064778582513   11.26619312122230    8.54717930568284
O         4.61747000597483    8.23822138107625    6.98213361875239
O         3.26093477914083    7.64942240706003    8.67539692015099
C         2.83359953035201    9.65779957453153    7.45391944094485
C         1.59512246889391   10.00760812509621    8.09762781135337
C         5.93294526750971    6.68743860868254    5.75681962163651
C        -0.01466206259248   11.41712316370357    5.61011155986285
H        -0.51113365567267   12.13260722661720    6.25582696527154
C        -0.76343719878979    9.14861413675517    8.56246749027763
C         1.96386960937597   10.81139320932628    4.27098340435931
C         1.32174168437869   11.64512940574368    5.22444437232192
H         1.83779386822080   12.52555869963946    5.59278284386274
C         0.61778588339329    8.97291713642577    8.12613049845730
H         0.99974113496724    7.96181790232646    8.29061907680885
C        -1.51298361481731    8.00153343494285    8.85247990633663
H        -1.04357925311635    7.03399909488733    8.75345676835207
C         5.35069737707370    7.01402547083115    7.10253644680326
H         4.65739974857598    6.23466882939662    7.43935118527838
H         6.13216335302452    7.14820818488087    7.85828166315507
C         3.56453602218055    8.39371712700122    7.77279120568153
C         5.07866333208246    6.45045934160753    4.68602777779561
H         4.01075794087359    6.48836984546860    4.84377558106631
C         1.24646224577211    9.69969594709307    3.80222535121285
H         1.69263857339286    9.03455269966313    3.07062128770991
C         3.34816150742107   11.13383121566466    3.76401243885825
H         3.80112352173311   11.85767657495604    4.44996526504196
C        -0.76655821801671   10.34715750069080    5.06145151602803
C        -1.39589084649636   10.39028149156300    8.68425980012229
H        -0.84880505867185   11.29290398663826    8.46930771313777
C        -0.10352976706650    9.46583097073436    4.19446304731936
H        -0.64555675785692    8.63998984792924    3.74369078832039
C        -2.71288019726797   10.47641936647794    9.09865987093421
H        -3.17879146322210   11.44752923415457    9.19440120255422
C         7.30547001129712    6.64358006768252    5.56010950174567
H         7.97374961238216    6.83007198486935    6.38863548640462
C        -2.82912445470430    8.09236449450297    9.25705721230602
H        -3.38658711615096    7.19370309037843    9.47651980039202
C        -3.43670964709017    9.33182670943599    9.38676405396635
H        -4.46486288857453    9.40438850837691    9.70864092200057
C         6.96877009459873    6.12512155623482    3.24265975200770
H         7.37280436457974    5.90527122730513    2.26501346600822
C         1.73753081079189   13.62854103149197    9.95863034330141
C         3.23408382208790   11.78278865819586    2.37999654778461
H         2.77506215676831   11.09528795533414    1.67233448170504
H         4.22262848507675   12.04643397591596    2.01317112993209
H         2.62893542865666   12.68636108561703    2.42550674370526
C         5.59783031121072    6.17466688105470    3.43432603382913
H         4.92996258535904    5.99006688085262    2.60566632032580
C        -2.22944659390156   10.20968665037555    5.35005416300322
H        -2.59102138975841    9.22517376241806    5.06323254132916
H        -2.78381294276959   10.96214071349777    4.78669399028439
H        -2.43350858698760   10.36102294054153    6.40905536879872
C         7.82148467965118    6.35733762705066    4.30766056530021
H         8.89146443707858    6.32024914198459    4.16281303693148
C         0.53285314878006   11.00742614051689   11.32277046201909
H        -0.46738377608084   11.39584424982746   11.15488794821362
H         0.80656902037885   11.23616041908087   12.34742120581100
H         0.47506456426766    9.92557464919624   11.23323797946556
C         4.24660476615718    9.89603330477047    3.71696628873125
H         4.20414112270635    9.35234139325924    4.65888347573183
H         5.27729252716945   10.19406886630151    3.54349380220137
H         3.95258484759051    9.22042526516906    2.91778214403377
C         3.51767927515238   11.02475244141195   10.58244615698816
H         3.53602078599710    9.94735801592348   10.43250694004317
H         3.73858156636663   11.21071842894321   11.62841644901460
H         4.32392950790606   11.45100598670507    9.99312065898324
C         2.89261632231160   14.16166902177430    9.10633245555553
H         3.84907240569512   13.94526480807454    9.57479193016173
H         2.80872836904879   15.24174198179991    8.98738032659733
H         2.88766936990051   13.70471339008444    8.12001669859189
C         1.84247748136649   14.23046104177235   11.35869175049410
H         1.01173552598704   13.90789991342404   11.98051180521423
H         1.83017623310824   15.31855829222863   11.30867333808961
H         2.76659210033960   13.92220170321173   11.84025842589170
C         0.41818466482711   14.07933542901073    9.32612211728246
H         0.33062818042941   13.68602174881281    8.31623457990003
H         0.37449323141277   15.16704756837797    9.27377732364179
H        -0.43173478013625   13.73268791396067    9.90970798554273

