87
CSD_code = UYEVAW | q = 0 | S = 0 | Stoichiometry = C44H39ClNiP2 | MND = 6
Ni        1.17204473758514    1.53750793953726    3.77639353600449
Cl        3.05923254909944    2.53409910357212    4.07241001316101
P         0.53971401962141    3.15937123302917    2.24612746177389
P         0.61735277333176    1.94461154493625    5.97918073210129
C         1.31712029919048    4.78598494283403    2.55803982555625
C         2.16753281828294    5.43594698551695    1.66676359298989
H         2.37336715095188    5.00069674051032    0.69986068986786
C         2.76252110837965    6.63650597181432    2.01296848845859
H         3.41752396322514    7.12550255654985    1.30650423421126
C         2.55011115247774    7.20631223376020    3.25982577440203
H         3.04309634938657    8.12852879966635    3.53179227158840
C         2.60391096699860    5.82594536663076    7.52352114795405
H         3.09353274935330    6.73709858181640    7.83592864310608
C         2.84477325054540    4.63428483176881    8.19168111660881
H         3.51677501811536    4.62250730456050    9.03762145641357
C         2.26015799185316    3.45163117020733    7.77352938574576
H         2.49391906208530    2.53088418831790    8.28839255789764
C         1.39039306254644    3.44259529686528    6.68677203424309
C         0.21257517553341    4.82167653264664    4.87210460156871
H        -0.27269925632411    3.88696811128798    4.57284914676611
C         1.39798054601611    6.99682036521532    5.56177702918260
H         1.92710602875755    7.90719018671073    5.84916645875282
C        -0.13382899740957    7.19009405098219    5.64372278519403
H        -0.40036291561539    7.47336791501287    6.66288331849120
H        -0.42218426578396    8.00652124580441    4.98003691670417
C        -0.83953551157312    5.88611248646135    5.23997721826553
H        -1.49227613394795    6.04468502078889    4.37987152669207
H        -1.45008362571103    5.50249770876637    6.05932181643445
C         1.08191498135193    5.38158343489855    3.78999101205311
C         1.71255372502277    6.56759227147189    4.15336149214534
C         1.11782703205180    4.64656378953955    6.05239021346837
C         1.74307486190944    5.82636757770159    6.44320331380312
C        -1.17222341360046    3.71140218894151    1.89461985382244
C        -2.22109256281170    2.81977129778478    2.08845852841205
H        -2.00422856912883    1.81657937706123    2.42711809896082
C        -3.52755051301386    3.20354454868856    1.84628072870811
H        -4.33422352267100    2.50091480331972    1.99920138705456
C        -3.79950624334220    4.48879185581119    1.40888116329178
H        -4.81878010669705    4.79308672797189    1.22105852973783
C        -2.76007768939332    5.38374948350000    1.21234223983585
H        -2.96957013246709    6.38647088877758    0.86808397074513
C        -1.45325220520900    5.00066602794086    1.45379223379096
H        -0.64635746642925    5.70235838238444    1.29726041112988
C         1.14742508567835    2.75896200100280    0.57655640460718
C         2.50153674966600    2.44272623895006    0.46224489690114
H         3.12867014482397    2.49232503950395    1.34380569546695
C         3.02931255223360    2.07588632923684   -0.76043366250528
H         4.07990187333155    1.83799621682912   -0.84454129438373
C         2.20948178261036    2.00863156564413   -1.87690600510803
H         2.62022067252307    1.71946498676097   -2.83331376790527
C         0.86221652910847    2.30745224130949   -1.76426857373028
H         0.22187933119442    2.25073362525938   -2.63292774020355
C         0.32744757698542    2.67905384587985   -0.54226599007297
H        -0.72565659523216    2.90873496757390   -0.46063553279224
C        -1.05649190107070    2.20310086899686    6.67386143598271
C        -2.15737692927332    2.17727789764200    5.82880155128132
H        -2.00871899648797    1.96740092692669    4.77801931347020
C        -3.42560461257320    2.42966867431207    6.32143525111681
H        -4.27683704965901    2.41146106845883    5.65629683774394
C        -3.59900609060122    2.71043117736120    7.66582019208676
H        -4.58731758975475    2.90796431563904    8.05463811382280
C        -2.50226069744769    2.74468061453873    8.51401793422286
H        -2.63795084217989    2.96947593325992    9.56220904253811
C        -1.23467895997542    2.49807792838727    8.02185908679485
H        -0.37664043296264    2.53421189243509    8.67881779999469
C         1.28638547681365    0.60501544586292    7.01115581836141
C         2.65649608773194    0.35849233927044    6.91538273035227
H         3.26436755168053    0.99955603909823    6.28951999278594
C         3.22160218286501   -0.69985408643287    7.59999195322660
H         4.28438471652583   -0.88180690447802    7.52837299080205
C         2.42465665837418   -1.53266179385011    8.37118582464660
H         2.86556661558480   -2.36157958910801    8.90574366145441
C         1.06008821537782   -1.30898353294760    8.44492012826928
H         0.43574632971905   -1.96638745010791    9.03319767476890
C         0.48760182778071   -0.24852965194861    7.76327325137180
H        -0.58012704404904   -0.08661256437236    7.81489842568737
C        -0.06704912835348    0.07715078384917    3.34350119177316
H        -0.91736867177973   -0.20033219926634    3.96021981846334
H        -0.30953763810982    0.17737062069992    2.28506269238407
C         1.18354542447734   -0.53007945663184    3.65268546824582
H         1.29800260949962   -1.07398225894191    4.58825963684652
C         2.28949773057135   -0.27843743652182    2.87727004700236
H         2.15408514568699    0.09377952689790    1.86136954577403
C         3.66379108894815   -0.74542207207223    3.21562990092496
H         3.67724006691361   -1.26146085657949    4.17404135784258
H         4.34171195427405    0.10741078430770    3.27374421735850
H         4.03708295579973   -1.41325511407287    2.43741572526119

