76
CSD_code = UYINEX | q = 0 | S = 0 | Stoichiometry = C34H36ClNOP2Ru | MND = 8
Ru       -1.07768515499625    5.23511376627104    2.53912547258486
Cl       -1.77666803401679    4.99206818489335    4.78713210782904
P        -1.11238567453802    3.05128287854898    1.91744068215033
P         0.98380046369871    4.32461861314802    2.94479264885196
O         2.26415908352887    4.83997776354965    2.11604930405543
N         0.57726715579229    2.83820517519629    2.15257336536818
C        -1.88507730238478    1.57200889588076    2.66171074794920
C        -2.36205728389229    1.67839733960113    3.96448292431345
H        -2.30629357112111    2.63440595345680    4.47000954999168
C        -2.91562532834617    0.57494795816838    4.58966097206041
H        -3.28617870778044    0.66068369217216    5.60026313089241
C        -2.99907491448582   -0.63375338812943    3.91806897307689
H        -3.43136538219227   -1.49565106178754    4.40516929781222
C        -2.53725804778362   -0.73793755808907    2.61524066292214
H        -2.61125261100287   -1.67865025111558    2.08869390963919
C        -1.98458878389901    0.36039395780127    1.98293033645800
H        -1.63711819824403    0.27847642347523    0.96190568192274
C        -1.41246319286114    2.74221521659995    0.15155493848275
C        -0.40238802862450    2.77526844774968   -0.80025115357586
H         0.62115371050729    2.89854800887712   -0.47784291802149
C        -0.71000966018891    2.65030182899252   -2.14348103509626
H         0.07936702238149    2.66877299393286   -2.88136210870875
C        -2.02883542622465    2.50807937755795   -2.54288125427836
H        -2.26782206245316    2.41567513362403   -3.59210858339046
C        -3.04356562158790    2.49087870790911   -1.59753947679908
H        -4.07212792565195    2.38758825270321   -1.91127386160319
C        -2.73796301007929    2.61013000290474   -0.25546690135048
H        -3.51791269493515    2.60069608280458    0.49544864927703
C         1.27649735900873    1.56077858284256    2.01246126464853
H         0.68925003062532    0.99041766906038    1.27818535291384
C         2.68236865726950    1.77825925973640    1.46504943690446
H         2.64994834711164    2.27872111857681    0.50110576932296
H         3.18406817916414    0.82077793070894    1.34435429021264
H         3.25419757003578    2.39054667765661    2.15681304308820
C         1.33299741571819    0.74844735459291    3.30712560816074
H         2.07181045518419    1.15902786497499    3.98892906895182
H         1.60426359436335   -0.28013820883685    3.07897409910765
H         0.36501773984446    0.75109592613851    3.80149688918874
C         1.79727779169078    3.72803816807052    4.47309085346723
C         3.17782135068121    3.73876920064730    4.63715301246374
H         3.81573849429581    4.12592365398394    3.85451892199045
C         3.73714744891495    3.24747179780704    5.80336460936668
H         4.81087942414172    3.25136783008611    5.92653297496044
C         2.92369033111398    2.75627704555012    6.81159709978355
H         3.36537017230915    2.37779532751929    7.72185237493790
C         1.54684014910320    2.75757957475592    6.65440154583079
H         0.91139745548503    2.38468723118027    7.44346722177031
C         0.98265725481115    3.24171001983723    5.48844369554113
H        -0.08970434397345    3.26876245965895    5.35864525459355
C         2.55444806484948    6.13979195228356    1.74063986855870
C         2.90606987181866    6.33989635063650    0.40223139767120
C         3.25897335276893    7.61412639066972   -0.01578960546373
H         3.52829062620692    7.77441196051177   -1.04933463665448
C         3.25660621572685    8.67299786101436    0.87363373565927
H         3.52637979084466    9.66290669788170    0.53839968626529
C         2.90334974375906    8.45975140842949    2.19217272898786
H         2.89976312655610    9.28714263285024    2.88632124043844
C         2.55030031618142    7.19636387516048    2.65286732314687
C         2.86520760245615    5.18983458160397   -0.55438482320768
H         3.58030142722002    4.42367150918505   -0.25730190434849
H         3.09798435437749    5.51826274332230   -1.56387143776397
H         1.87039381018101    4.74463314387328   -0.54559134222392
C         2.18712405978229    6.99631444153890    4.09061100433765
H         2.13026563222188    7.95383127259539    4.60252982600735
H         2.93053450893466    6.37956613412349    4.59534222903919
H         1.21853350715171    6.49665365973689    4.19196763851234
C        -1.58374252647011    6.11201603422894    0.55168741521594
H        -1.53192657935079    5.65889975851965   -0.43001791001009
C        -2.75083510003450    6.17958918556696    1.37203834049318
H        -3.72194926279826    5.77484670815478    1.12207063122494
C        -2.46377563221267    7.03651481935136    2.45443737174520
H        -3.16824296792468    7.35405228779871    3.21382507172633
C        -1.12185384396815    7.48835285824394    2.33389871416448
H        -0.66232735080764    8.26625551203845    2.92826505207599
C        -0.59031710479962    6.93077302654224    1.13847790114863
H         0.35327866181363    7.19928431289142    0.68486603321830

