40
CSD_code = UYIZOS | q = 0 | S = 0 | Stoichiometry = C16H17MoNO5 | MND = 6
C        12.01619316785227    8.28326082807123    4.41546682573433
C        13.34620379033611    7.87963383341551    4.64877328342411
H        13.83030677017890    8.24513915744527    5.54302767716887
C        13.99243046180208    7.04281014374248    3.77081592581977
H        15.01011186140448    6.74116462795304    3.96952250324516
C        13.34841744736619    6.57751283043377    2.62258919082889
H        13.86836228327071    5.92198170164054    1.94173929586754
C        12.05273203572804    6.95503632624447    2.36927463708093
H        11.54306316669433    6.59686470306851    1.48595968572378
C        11.36023331484769    7.80477570080320    3.24779174897416
C        10.00855083221504    8.17289931797869    2.97045541629616
H         9.58108243798296    7.75797854347267    2.05010279120051
C         7.91403275643573    9.17835419781110    3.31404416656201
H         7.93296593054067    9.85915884431777    2.44868151744435
C         7.25247003544556    9.91330894199933    4.50928263434694
H         6.44687621338974   10.57526151364883    4.15018072826669
H         6.83115695338299    9.16450511829557    5.20494384988020
C         7.17070074240346    7.91013092572185    2.97467451065940
C         7.22977373103694    6.83388487578001    3.85560782948356
H         7.81577101261962    6.92135606321140    4.76140591510459
C         6.54385812031086    5.66763620948413    3.57102963747229
H         6.59336134101041    4.83612598137395    4.25758318385386
C         5.79120119851683    5.56663433471316    2.41147344772230
H         5.25427694798197    4.65592566230268    2.19233161205568
C         5.72714002104303    6.63587077533669    1.53541492298984
H         5.14083695384186    6.56224149153481    0.63158618580027
C         6.41689459204515    7.80417366170493    1.81431300226100
H         6.36611854522776    8.63763318279129    1.12794388544357
Mo        9.75639393898445    9.80254367952197    5.71212540691775
N         9.28652514213455    8.92457253371019    3.71759523901207
O        11.41827105264285    9.08825668877816    5.24357260267875
O         8.21932250232414   10.64452120233973    5.16543137968378
O        10.32002907775789   11.06253560084419    6.60882928935271
O         9.12716810540091    8.51522490502151    6.53778163001705
O        10.65222700396785   11.56858020996340    3.92246796536318
C        12.05297332509427   11.77721011464119    4.03001843091304
H        12.40294140246655   11.57191047024730    5.04608577068329
H        12.30161579785041   12.80817064644313    3.75607532348296
H        12.53813198706959   11.09560954507108    3.32983166103484
H        10.23557799939503   12.11650490912151    4.60516929014896

