92
CSD_code = UYOCIV | q = 1 | S = 0 | Stoichiometry = C44H42ClN2P2Pd(1+) | MND = 4
Pd       11.08936516553547   15.29410566945947    5.06601556246145
P        10.44643710655735   14.13314111842587    3.24866374868449
P        11.50174871595723   16.44841350275112    6.95933533752179
Cl        9.44590746183327   14.14146922525046    6.16086130387939
N        13.22365006927669   19.00864275382664    1.81778431758209
C        14.87170835543525   16.36264812550579    3.59809505860273
H        15.89791653247313   16.03556634224313    3.67828661564468
N        14.65335369800856   17.40517288450945    2.76173111698154
C        13.39818756016501   17.92632687699301    2.63498293453799
C        12.53078511765704   16.19309329776817    4.12025218988089
C        13.86592500417687   15.75774906950747    4.28397559705255
H        14.10382832354506   14.93332263067913    4.94686410830661
C        12.34306447163174   17.28445410155280    3.28120834938158
H        11.34742171932080   17.69040545276714    3.15413606664697
C        11.91857537940031   19.23671134284097    1.23393554879835
H        11.48957930715375   18.28945373501264    0.91310737177872
H        12.05236849253379   19.87191473402998    0.35887810219498
H        11.22985159613234   19.74003785935765    1.92069051271166
C        15.75563376353960   17.85394501760053    1.93609381576187
H        15.36826549146219   18.28793932122138    1.01732128224560
H        16.37892475142835   16.99772295175367    1.68180149147820
H        16.37755045079624   18.58724327968347    2.45152226444367
C        12.81021635665915   18.74787933692746    6.19606072067655
H        11.83102569220944   19.03092220330058    5.82860074411781
C        11.93647561737094   15.19682218484357    8.19747107742522
C        11.75904523025441   15.35496782321748    9.56568682510523
H        11.32738992576535   16.26537725669144    9.95572443678009
C        10.50235859750109   18.43694345477973    8.65239077152885
H        11.51662763493195   18.54197320041777    9.01468146524025
C        11.20010620039749   14.66380618978435    1.67678002442452
C         8.69417573241915   14.56207829291400    3.06281829506118
C         8.35481104962155   15.85605220674918    3.46418210691622
H         9.13880145277152   16.52235250913322    3.85186462410567
C        10.91982992106458    9.58836305491542    3.17520300293427
H        11.02792610670829    8.51444854922831    3.16485788840278
C        12.95137128806139   17.54791396515958    6.89026494522945
C        12.11852805069979   14.32909600889629   10.42337242304190
H        11.97529102963261   14.44650280594179   11.48683290559135
C        12.46293061472794   14.00662371593355    7.69370809046332
H        12.56946763243651   13.88157258947195    6.60726891928203
C        10.62351248421174   12.33735000330508    3.20017947952468
C        10.39682244161883   11.62755812309691    2.02299556833637
H        10.11897404275891   12.15515441347087    1.11993406517406
C        13.21739569681839   14.80362724531614    0.37155010063367
H        14.25357067590235   14.53906844450069    0.21941775235521
C         8.91824221181366   17.40373728770360    7.15221932889957
H         8.70528737172853   16.68051623015722    6.37157008191405
C        15.14912303518219   19.19074300814143    6.46866995280873
H        16.00363110562968   19.83231369966902    6.31254880791388
C        11.01983129601955   11.67222396170042    4.35560715181835
H        11.19394731275217   12.24103875698441    5.26417561644683
C        10.21275989607523   17.51249337063044    7.65054459627885
C         7.71195073882786   13.69422650921202    2.60754129499457
H         7.96861230758318   12.68314407167470    2.32608409540078
C        10.54785120322038   15.46760238191706    0.75048393343938
H         9.50686286775911   15.72216659142881    0.89578945926053
C         7.04231264756292   16.27962423118907    3.39331384937654
H         6.77516358525686   17.27781723360720    3.70848752371034
C        12.56267820859408   15.60673859961286   -0.55067881606547
H        13.08940588404069   15.97133200904168   -1.41951087519786
C        14.20240093643088   17.17440640502732    7.36538033708707
H        14.31679818823150   16.24490219862121    7.90590907927788
C        11.22960076476505   15.93134343019794   -0.36286924270815
H        10.71566198306777   16.54365595142700   -1.08945930451984
C        15.29559158259839   17.99814847107385    7.15689954914527
H        16.26441751763349   17.70971957963288    7.53627084289104
C        13.90232406961088   19.56761369729040    5.99157037638154
H        13.78428222039847   20.50537013900691    5.46777603977187
C        12.54007384828379   14.33623040725337    1.47999974885977
H        13.03888342123997   13.70674803594245    2.20781672491730
C        11.16412246886921   10.29655835257614    4.34070286010859
H        11.46400101422395    9.77542619981136    5.23731390347069
C        13.96881455215849   20.23655849466110    2.04301331658849
H        14.74891587762885   20.09232578995348    2.78404191274911
H        13.29154465626313   21.00818407224659    2.42006068154411
H        14.40958826868201   20.59644235253967    1.11182747337423
C        12.65012374246776   13.15230097070692    9.92251932993615
H        12.92111339745184   12.35435568367786   10.59682278079650
C         6.06309458343215   15.41244424993984    2.92981727423577
H         5.03520617536270   15.73854157799283    2.88441694562580
C         7.91237482868719   18.19912881084384    7.67163508620882
H         6.90568510580706   18.11004405451802    7.29187950659938
C        10.54120708332615   10.25295936476731    2.01813430568259
H        10.35943639810384    9.69714199344561    1.11051050929445
C        12.82133273659284   12.98871073082459    8.55592106416861
H        13.22354152861454   12.06430656153215    8.16827545513762
C         9.49030469141232   19.22569712819622    9.16655836892848
H         9.70954159163863   19.93783659615383    9.94802451307398
C         6.39707066147732   14.12593566700334    2.54261638352369
H         5.62948966330347   13.45001673788328    2.19740371506165
C         8.19676112926259   19.10440303986993    8.68095879071733
H         7.41083363228679   19.72119244221022    9.08971674208632

