96
CSD_code = UYOCOB | q = 1 | S = 0 | Stoichiometry = C48H42ClN2P2Pd(1+) | MND = 4
Pd        8.27183029728415    1.30147133158318   31.38840906385609
Cl        9.27562357772650    1.87651585831685   33.34579810919733
P         6.46295267343876    0.66230143493455   32.58321910495837
P        10.09945573781947    2.04740870027278   30.28707396658636
N         7.56672989595687   -0.42220908694403   29.20644176803919
N         5.32368714782067    2.31013309654741   27.09782303264415
H         5.07865349126513    3.15262986510456   27.60020457008999
C         4.98226606261990    0.36566979217454   31.56249047675208
C         5.98982596039942    2.01219025378442   33.69172743403818
C         6.63336613728951   -0.83661660332116   33.57829725153150
C        11.57871662302617    1.01824480974799   30.43053702375108
C        10.52101437854227    3.70221486260374   30.88711014110203
C         9.86406843832000    2.25724666386537   28.49150765324013
C         7.40209594833187    0.82398516253600   29.71094015706047
C         4.82666968735574   -0.87051000385278   30.93922102612356
H         5.48905035891386   -1.68703755074976   31.19781381606544
C         6.20393766330344    3.29469073585992   33.18865707362698
H         6.63455842042546    3.40089351477559   32.18919422739198
C         5.52799575148363   -1.47557586021662   34.13518565199230
H         4.53394737356045   -1.08800344752803   33.95568994470791
C        12.68620495663655    1.19853845970484   29.60518561866585
H        12.66756970058002    1.95862192248236   28.83559502967810
C        11.81539295433330    4.17987025405275   31.03679159933369
H        12.66031788434855    3.55507752407014   30.78631862912713
C        10.02269719968180    1.15987027460013   27.64853859775105
H        10.42525315439079    0.23509172986878   28.04200276854909
C         6.63345656550487    1.72396951725373   29.00308142408612
H         6.49053075282472    2.72174290724855   29.40629536994285
C         3.82007755939191   -1.06393684186000   30.01261870973464
H         3.70138921216212   -2.02743291401860   29.53983074887232
C         5.89452757912181    4.40069462279966   33.95442658169655
H         6.06347437650681    5.39551607458130   33.56957098469621
C         5.71283754407425   -2.60924484232395   34.90475378311287
H         4.85989745207457   -3.10446808145233   35.34374937280402
C        13.79739960986677    0.39231969332117   29.77029740851752
H        14.66003898074293    0.53185150153370   29.13643177714575
C        12.01405406049111    5.45726417914907   31.53370724189691
H        13.01891654127097    5.83059290561062   31.65936612442676
C         9.69459207554306    1.25459699466383   26.30931575840099
H         9.83320125161432    0.40197940942418   25.66090095819515
C         6.04932558652311    1.39824076765915   27.77125722883016
C         2.96337094231921   -0.02323590922271   29.69088632521783
H         2.18068882452739   -0.17379403809557   28.96331076577677
C         5.37798371895277    4.22784918456149   35.23023781747852
H         5.14488213602976    5.09001129315128   35.83620303647458
C         6.98940864035501   -3.10939578969163   35.11514776923379
H         7.12566930781339   -3.99241934232971   35.72047239502238
C        13.80660359538195   -0.59204209626720   30.74747278334702
H        14.67929998905329   -1.21451595796595   30.87257096254235
C        10.93336786088185    6.25076701249995   31.87993491800954
H        11.09830425122796    7.24167386289362   32.27444474918563
C         9.19385790058142    2.44198857056732   25.79943638855510
H         8.94282146981790    2.51957032271345   24.75239837537104
C         6.22936410012567    0.06965259519405   27.31672391684442
H         5.75048215266836   -0.26757122518077   26.41371631273253
C         3.10703934965200    1.20566822518032   30.31308532278041
H         2.43006380386884    2.01309413431158   30.07615386822010
C         5.17581133875304    2.95442448662952   35.73542369110784
H         4.78667679894592    2.82620677317523   36.73410336598970
C         8.08856630723685   -2.48137326591907   34.55165588492366
H         9.08033104085143   -2.87410895809703   34.71712507812319
C        12.70139469630964   -0.77947761590294   31.56218739845901
H        12.71255639615367   -1.54675666245071   32.32131348355049
C         9.63947623716417    5.77148959450061   31.73762457294790
H         8.80002396236600    6.38807879889520   32.02245022317366
C         9.02913617023816    3.53586273683661   26.63288160744455
H         8.64583635652322    4.46362833203591   26.23507831084755
C         6.97682261703574   -0.79461502834472   28.05346660807670
H         7.11794180715090   -1.81708272922251   27.73600596394266
C         4.11388846513805    1.40361746685623   31.24110542784280
H         4.22156318364684    2.36329536087790   31.72808764406217
C         5.48055394333149    1.84032746328595   34.97118215528686
H         5.34034901184927    0.84776995997925   35.37413741515289
C         7.91278758016038   -1.34614892805520   33.78103184003293
H         8.76514031657171   -0.82516882297544   33.34997884494740
C        11.58566905858650    0.02278096785148   31.40392175924300
H        10.71590018813689   -0.09370114935086   32.04823003807989
C         9.43426426028570    4.49799739740145   31.24629407984815
H         8.42710802664748    4.08525484146075   31.14922601007974
C         9.35847926772466    3.44531847784262   27.97336797813595
H         9.23620738732154    4.30322527427198   28.62047096790274
C         8.39242471722429   -1.35484975544689   29.94727404950633
H         8.39009663604449   -2.32832433208543   29.45950256099950
H         8.00871044219832   -1.46807636936184   30.97199913523803
H         9.42612276616028   -0.98480589750206   29.99784027720099
C         4.83353933757181    2.22323610807028   25.78251518313521
C         3.57758939067392    2.75023571204448   25.49880570354009
H         2.99237516402059    3.19136091569506   26.29251894396857
C         3.08319089739289    2.70387485416915   24.20873984871574
H         2.10667856218224    3.11020657632612   23.99586746608392
C         3.83760881144824    2.13912803374029   23.19336556053809
H         3.44992286354834    2.10254602255494   22.18769374747863
C         5.09735307430857    1.63537841066254   23.47069400597123
H         5.69743761336436    1.21432781230148   22.67862580983938
C         5.60180672658374    1.67978614164024   24.75796885740527
H         6.59884991333180    1.32243056544877   24.96696558618963

