36
CSD_code = UYOGEW | q = 0 | S = 0 | Stoichiometry = C12H12N4O6SeZn | MND = 7
Se        3.95886046053908    2.76389894658766    3.96695828473260
Zn        6.71644021661886    1.70854595382100    2.82248470340689
O         6.22249708719209    2.94015236426756    1.07936754811736
O         7.98828275514439    1.78197945569830    1.24221896721175
O         7.63427900751643    2.93793953959612   -0.51603699241109
O         6.22528890572192    0.95642810568576    4.79111727625104
O         8.00168508598251    0.41881297574003    3.77982169432281
O         7.60918476883455   -0.37633054929370    5.72034086320477
N         7.24978987058708    3.42151703711681    3.76095994528540
N         5.39035113631200    0.35009004867889    2.11797229887587
N         7.29617134271263    2.56281725088982    0.56743685790806
N         7.28539237925242    0.31084494198364    4.79662634593109
C         8.49041511718372    3.45739967931581    4.24057928699548
H         9.14629099593842    2.66243240042636    3.91237311601249
C         8.92737770482110    4.44286659657904    5.10565087289230
H         9.94058799022381    4.42995408229120    5.47227866577742
C         8.03064053595232    5.42718196683757    5.49275592047065
H         8.32616577109173    6.20479717196566    6.18068844631012
C         6.74863863759049    5.39850485872792    4.97525665981505
H         6.02808379185543    6.15508795226265    5.24406336261340
C         6.38339180998697    4.38204549526473    4.09559759508953
C         5.03298861621831    4.36899173473437    3.47547136254161
H         5.12007266793963    4.33692352625932    2.39018764707230
H         4.45878535305183    5.24228812943943    3.78422890954635
C         3.57517252531482    1.96091302218971    2.18390643823957
H         2.49508510571923    1.99874254462066    2.04374005480921
H         4.07378739206506    2.60734360608093    1.46282186859274
C         4.07380352447820    0.56749740038535    2.04955388593020
C         3.18784177686165   -0.48175222797896    1.81600967133035
H         2.12751908578168   -0.28596513919090    1.78058116108543
C         3.67729971237947   -1.76165228946827    1.63049489297180
H         3.00257284231177   -2.58573119644958    1.45469391401532
C         5.04884710395495   -1.96231132335737    1.66879981788550
H         5.47835805162031   -2.93902026793351    1.51801418923291
C         5.86641679809243   -0.87657273146281    1.92025075417580
H         6.94213407315418   -0.97856106230741    1.96803371375555

