37
CSD_code = UYOGOG | q = 0 | S = 0 | Stoichiometry = C12H12CdN4O6Se2 | MND = 7
Cd        4.41455038051086    2.87108285903451    3.50611608352123
Se        7.05466321676905    2.40151144686684    2.69023511929935
Se        7.34465566649513    0.15699954183427    2.83060894467061
O         4.85653668965150    1.97283514709595    5.41533330533921
O         2.97734039142739    2.89690546599425    5.01608194903717
O         3.37242103715957    2.05948041297045    6.93042101767345
O         4.52668381633225    2.96642193918669    1.26762492145836
O         3.52428010072909    4.46562122584206    2.39394636622217
O         3.84261906578041    4.74271759899370    0.30685764241055
N         5.72858676421727    4.52071264286924    4.44610086405201
N         3.63552751194743    0.80578043686148    2.89484747993096
N         3.72138101548808    2.30786893628295    5.81222337286417
N         3.96020675153352    4.07633723658546    1.29511948562985
C         5.12572764611369    5.67076761249812    4.72998005110225
H         4.08860351136750    5.74710941042837    4.42517331311219
C         5.77585797443662    6.71775837514123    5.36133706355453
H         5.25002944041750    7.63472405070454    5.57157129707737
C         7.10994832881122    6.55875912425079    5.70317771405783
H         7.65540451210661    7.35487957962420    6.18716404401115
C         7.73538465193923    5.35884919673611    5.41242243777317
H         8.77127148604146    5.19740900974027    5.66789792145133
C         7.00766910725251    4.34894769873349    4.78992913180996
C         7.62761800121225    3.02289886024792    4.50598669300520
H         7.24862482947114    2.27952192886702    5.21218247972213
H         8.71635657983836    3.06641701711166    4.55364718819957
C         5.57281399526335   -0.46664793936569    3.56880728106461
H         5.72745900095685   -1.53106971225918    3.74215282914252
H         5.43190816142408    0.05765438670155    4.51359749769041
C         4.43823067876553   -0.23259340348423    2.64106183782071
C         4.20839584395579   -1.09350290469210    1.56901871581613
H         4.90119899779410   -1.89943688853361    1.37870811440930
C         3.10088212685178   -0.89326682135602    0.76829314499832
H         2.90524831034557   -1.54243051275468   -0.07182004705750
C         2.23830160766862    0.15057247543481    1.07375179590965
H         1.34935275885624    0.32876455257940    0.49044893832022
C         2.55201008929280    0.97617941457489    2.13798270435645
H         1.90864995176971    1.80666059868312    2.41431130054632

