60
CSD_code = UYOMAY | q = 0 | S = 0 | Stoichiometry = C29H23O6PW | MND = 6
P         1.61373765877468    3.56032393510562    1.40984096310037
O         2.39627725771006   -0.08075162574960   -0.27744168771250
C         2.30093512161918    0.49250064670697    0.70832527285608
C         2.56464074830194    5.10819267878360    1.60280841682135
O         1.99173959692255    2.60243608979871    5.36436574084375
C         2.12986709661891    2.23883544596411    4.28433260762028
O        -0.86798344587046    0.89266836278624    2.78567769310849
C         0.25242944504838    1.09261367851643    2.64467157901168
O         2.44171007888161   -1.38771953566159    3.83250406592585
C         2.45171540840444   -0.34769816479351    3.34235661652367
C         3.81087507394284    5.08835999977564    2.21327894941337
H         4.22057965619648    4.14489182640476    2.55079796359714
C         0.49115145242887    3.23260390746593   -3.04012441833202
H         0.22129112259253    3.12421891315193   -4.08016635106388
C         2.01155965776707    6.32822487628601    1.21670463976427
H         1.02160296728318    6.35233286872765    0.78015321412900
C         2.71825169298714    7.50046677505723    1.40536591539846
H         2.28694790724960    8.44320605947043    1.10132673002964
C         3.97486866353863    7.46971137302846    1.99103229357287
H         4.52416426840252    8.38797665235460    2.13755939707707
C         4.51697618128658    6.26416320294658    2.40190157883090
H         5.48774238482352    6.23975316144272    2.87527153368484
C         6.49944579551438    0.85792028192501    4.96582576210674
H         6.37854521278660    0.53102000869911    5.99407038320257
H         7.09682539205448    1.76591751035005    4.94956674088605
H         7.02366597045121    0.08643122721045    4.40813919010477
W         2.21515281971400    1.41321740030347    2.47506576647687
O         5.33265485305513    1.54851657684258    3.01042343399116
C         4.28750344330364    1.74577150311222    2.21501543283657
C         5.13527004142068    1.11410456806023    4.34552323227014
H         4.52681502455565    0.20155375672533    4.34729826513221
H         4.59562071757398    1.89009997050665    4.90258033617755
C        -1.01606040873697    5.07704724456514    4.09951083209345
H        -0.94312806338544    5.45926337264161    5.10712724548339
C         4.77671002949316    2.17362534920908    0.92313005721980
C         1.29680143288862    4.28400567861181   -2.63831889264048
H         1.65865906407039    4.99628031947362   -3.36650754771337
O         3.88727449938215    2.65983328521515    0.02140014404389
C         1.19063922222334    3.51761020657604   -0.36262667813030
C         0.04027936446026    2.31394558899665   -2.10538163837005
H        -0.58044297714526    1.48597082680841   -2.41488157723803
C        -2.33543931612338    4.50096798706002    2.18421766713873
H        -3.29530312414610    4.43368236575704    1.69291584933477
C         0.04462347061605    4.17016891548323    2.13463833546915
C         1.64922372519557    4.42788152835847   -1.30631872532877
H         2.29249069338244    5.24393581519470   -1.00856126760063
C         6.03882615179252    2.17476812483640    0.36079064815661
H         6.93939652633064    1.84079111875044    0.83408778309829
C         0.12251018741607    4.67001683280620    3.43332919431922
H         1.08943369418663    4.74322816760729    3.91553587282096
C        -1.19489752562051    4.09254437523173    1.51319700340057
H        -1.27784799515237    3.71581975615182    0.50372289330763
C         0.39251371404572    2.45303407684066   -0.77638981730671
H         0.05539635915183    1.72842298796319   -0.04458582864493
C         5.89101405775816    2.67090629345295   -0.94708141614698
H         6.66049756162497    2.80184185775210   -1.68048841550630
C         4.56282438987967    2.95189311740958   -1.09302365483477
H         4.00365733316084    3.34488930670507   -1.91987136126357
C        -2.25102474708509    4.98828870115977    3.47621044689375
H        -3.14430658380698    5.29877287342915    3.99757159381433

