38
CSD_code = UYOMIG | q = 1 | S = 0 | Stoichiometry = C18H12N4O3Tc(1+) | MND = 6
Tc        0.48010957924785    3.04658592512427    3.27400380536741
N         1.65926145389372    1.74170681019574    2.10617618633588
N        -0.82718018637332    1.41108089639523    2.99978173123465
N         1.22217067839323    1.92229176868368    4.97436868185310
N         1.34613486924392    0.92412181333014    6.91922947863856
H         1.07784656156415    0.56517289737305    7.82249993711959
C        -0.71378860508288    4.07777741712329    4.39384644541840
C         1.84445821063562    4.40209942844640    3.50635409940946
C        -0.18778103724371    3.96398820836749    1.70607847184084
C         2.87973670640395    1.93472528626384    1.63550125742246
H         3.33036018833706    2.89628409858404    1.84025452097348
C         3.57842837146305    0.97429736916020    0.90217028249818
H         4.57122023266431    1.19863839851346    0.54754665887024
C         2.98850926127394   -0.24071147535662    0.64191905580837
H         3.50075748712830   -1.00490121562226    0.07822336808995
C         1.68761778532896   -0.47566412350089    1.11655686070221
C         0.97766810100352   -1.68951874054475    0.88608558671060
H         1.47360459758378   -2.46913130803636    0.32877311798498
C        -0.28706044870183   -1.85863781237080    1.34212977808737
H        -0.82390667019488   -2.77620365325169    1.15705479335619
C        -0.95215813492207   -0.82845548948856    2.06809778523498
C        -2.27097643480538   -0.94357775615780    2.53736340086485
H        -2.82781291797241   -1.85011821803893    2.35760613078242
C        -2.82834934193183    0.11781667218582    3.21183863776529
H        -3.84075879067232    0.07419755892319    3.57906806365569
C        -2.07340340037334    1.27312265806056    3.41973753355449
H        -2.50459803326494    2.11831598873110    3.93830952301728
C        -0.27060654508242    0.37979399836738    2.32777920274446
C         1.06350259291086    0.55776552825934    1.84742378976579
C         2.50616256493617    1.50858810848437    5.17453824676235
H         3.28034292733306    1.69068868145056    4.45609327974230
C         2.59713555829322    0.88569065380747    6.38349414685576
H         3.42947009601457    0.43726288631085    6.88363756292419
C         0.54846394563395    1.55642022262469    6.04372391081280
H        -0.49479488684912    1.74029094150761    6.21196028745846
O        -1.43740786921878    4.66676941580583    5.05663956246171
O         2.66730062409569    5.18446983350906    3.63773850666154
O        -0.58557909069220    4.48495632678398    0.77179631121291

