41
CSD_code = UYOQIK | q = 0 | S = 0 | Stoichiometry = C16H17BrNO5V | MND = 6
V         5.03710005721138   10.02949530021138    3.74629011086556
O         3.90944747235246   10.65845229729006    2.93050855595549
C         3.84027481123690    7.52342422152887    3.40521611425629
O         4.46411664610407    8.41086682148335    4.10975313313755
C         2.87019344744552    6.69116975323002    3.99886304095770
H         2.65081478818278    6.83371995769973    5.04713960005351
C         2.20771483073886    5.73258483434015    3.26984958450117
H         1.46157165357194    5.10707881882978    3.73603280150417
C         2.50638872959930    5.57054335724469    1.91931591284980
Br        1.58993177711591    4.23675287375863    0.92004692107996
C         3.45353695188689    6.35076205234878    1.30046197276681
H         3.67511063455999    6.21135963134607    0.25223696946205
C         4.13293887722182    7.33948035571454    2.02375711780719
C         5.13969911020724    8.13283673654451    1.39077963944171
H         5.37869086913466    7.87638810880097    0.35460126413330
N         5.74669841958950    9.10325892551590    1.97982208799926
C         6.73663098684237    9.85797665279012    1.39763049020900
C         7.05973530099245   10.98168128698774    2.19800551023946
O         6.44777126634896   11.09039982387577    3.33850656874949
C         8.03008471048644   11.88210237027261    1.73403331254003
H         8.27032133893409   12.74858516185239    2.33190274935758
C         8.66903296441357   11.64149005009370    0.53801692438214
H         9.42267710499031   12.33392288224699    0.19129557263216
C         8.37967854232174   10.51572724064282   -0.23992378279974
C         9.11132114451426   10.29404821890280   -1.53018214265333
H         8.84222167908366    9.33882988105798   -1.97279836874857
H        10.18770392408932   10.31190788074442   -1.36681027196902
H         8.87020262213127   11.08388348715468   -2.24075607935533
C         7.41294565696503    9.62942364623768    0.19653611485036
H         7.19165887611781    8.75339867911271   -0.39666714166089
O         5.04281184095149   10.60326712229288    5.27354948675443
C         4.61709421455874   11.58327473714122    6.12129654736153
H         3.56934265075590   11.84234454789424    5.90152233682461
H         5.23984993280758   12.48005838767902    5.96861871926693
H         4.70810835474468   11.26300419548894    7.17060610530888
O         7.18700685675023    8.61336483821164    4.60659258110027
H         6.73135446223541    8.48658025848083    5.44910116578070
C         8.40539262533920    9.28401166321386    4.86022409134333
H         8.92012650628009    9.37760296075158    3.90410929095777
H         9.03142023542740    8.70592481177300    5.54983985084319
H         8.23607712574980   10.28501516921976    5.27017554190947

