72
CSD_code = UYORUX | q = 0 | S = 0 | Stoichiometry = C27H38N2O4Pt | MND = 6
Pt        9.54399935689331    4.15574267606991    3.64280068947869
O        10.82099152660204    5.05779331421599    5.16340997596192
O         9.74180546800002    2.31679309437281    4.44665420417161
N        11.48147542791008    4.01758624802804    2.60531083838977
C         8.45477623069656    3.33829303269475    2.09956236765469
H         7.76308619233551    4.04706996458276    1.64338838699972
H         7.89876177106859    2.47743870300647    2.46441479684526
H         9.16049092300907    2.99729871498945    1.34247107575030
C         7.79689176667303    4.43349495491247    4.69678608616748
H         7.60588780597027    3.54133432687625    5.29100939764524
H         6.93262913333816    4.61419482719534    4.05819246667622
H         7.94314797892813    5.28378114773417    5.36390683212734
N         9.66053418923140    5.96512380691441    2.83113616574476
C        11.22580310342774    2.96040641785526    6.27090276127585
O        11.49411118223310    1.05542841333738    4.82818187381467
C        10.01309164262246    3.20487010029037    7.19613667786152
H         9.56683947292535    4.18394979189468    7.01924745646707
H         9.25204915834829    2.44044213666351    7.01940486633803
C        11.71989043000938    4.29794150301863    5.66181329458209
C        11.95807748709607    5.27138442576130    2.67936677931956
C        12.32853717373204    3.00470707236986    2.65195101385195
H        11.89920029757848    2.01453319309562    2.57461911173025
C        11.24889555094683    7.63627250264635    2.24594685982172
H        12.27861312392425    7.88389859366805    2.04939542916115
C        10.93701569754238    6.32766945928094    2.59198289392330
C        14.20996761467168    4.45854081171215    2.97426783600392
C        12.30956394784971    2.31663477316991    7.14885465242598
H        12.72812507946994    1.43942336959526    6.65606305501883
H        13.11228279406981    3.04004588726128    7.30534041402554
C         8.95580062681049    8.19712443777437    2.38741317206343
H         8.12611093559652    8.87952844600463    2.32452444251646
C        10.26408183801320    8.61406995649005    2.14796486438067
C        13.69210399711778    3.17690771341470    2.82811047311290
H        14.31081521551438    2.30007556670377    2.90018978018934
C        11.61983755963300    1.97236231449510    8.46650306279322
H        12.31678056560263    1.94033327683390    9.30390965876406
H        11.12711686621038    1.00129679363599    8.38768712801369
C        15.73853641729749    5.70041029286568    4.47266647099812
H        15.49378798729194    6.71951127981635    4.18373286028248
H        16.74245564376330    5.70378396944613    4.88960355370590
H        15.03634409389709    5.38101736807082    5.23882945864139
C         8.70407969648390    6.88155351993818    2.72282104243204
H         7.69363448318145    6.54939907312600    2.91694406775762
C        10.63776030803884   10.03974156219058    1.79588558590221
C        15.66675450293832    4.73900118248558    3.27643196530966
C        16.31270914162174    5.37603895801553    2.03699848785362
H        15.80104198579056    6.29257532842571    1.75151364110304
H        16.27999529505350    4.68902683313041    1.19326692050241
H        17.35260158853477    5.61510653890529    2.24658168914213
C        10.83222258397551    2.04179271488939    5.10112510668224
C        11.31477433189876   10.05077112085763    0.41766119069442
H        12.22408732354635    9.45647746894904    0.41319425802341
H        11.57489466320845   11.07026485337072    0.14400574586965
H        10.64144214405579    9.65276945668417   -0.33848579203092
C        10.57224579611094    3.07097221463351    8.61018499669426
H        11.05540534201003    4.00367045580057    8.90862601327931
H         9.79790040283670    2.83092733260813    9.33944891386997
C        11.60837414889465   10.56905385528198    2.86153300026850
H        11.14917156007587   10.52462512714050    3.84639970207325
H        11.86422438555137   11.60368618608907    2.64678628921583
H        12.52746832583096    9.99093194758601    2.88806278326595
C         9.41936289286578   10.96447676786730    1.74609700364347
H         8.91789981145826   11.00390413116320    2.70998891667476
H         8.71198686632628   10.64267447569787    0.98539918950546
H         9.74248768299668   11.97226176821443    1.49636490625219
C        13.31110267208363    5.51868427000217    2.84935134618453
H        13.65640372471437    6.53167898369339    2.96655074709610
O        12.90917126560626    4.58762296379615    5.68093501916687
C        16.42798898848130    3.46125530596422    3.63485996392114
H        15.96231748225514    2.97289838605066    4.48686287411928
H        17.45214238642764    3.71167246362950    3.90253332023563
H        16.46443494328482    2.76877007504392    2.79661792055751

