69
CSD_code = UYOROR | q = 0 | S = 0 | Stoichiometry = C26H36N2O4Pt | MND = 6
Pt        2.96190400970458    7.63213110253119    3.67240347744994
O         1.34479329851966    8.08395923273287    5.07048605489865
O         0.45829847785282   10.04423598402546    5.56983797079904
O         4.18167129570346   11.07373866799661    5.05144213476700
O         4.24275999831989    8.94742332322085    4.50816372737932
N         1.51663873822580    6.59230721459229    2.78060829616432
N         1.94860916196698    9.22706484643160    2.55549756033813
C         1.38581311885753    5.27336304736963    2.69016866298820
H         2.25061413362553    4.68353156348685    2.96086537658354
C         0.21846133453239    4.65801086563245    2.28291627528644
H         0.19072828837217    3.58303602996094    2.24169692329587
C        -0.89129058622423    5.43056850462460    1.94545287204399
C        -0.72875561811523    6.80991764613157    2.02752876004664
H        -1.53887482842941    7.46682154405964    1.75833941185833
C         0.46812291792544    7.37302107788453    2.45134558306965
C         0.66598290470439    8.82923757080534    2.53827712509420
C        -0.37215480475351    9.74286858954916    2.63008374001694
H        -1.38880575655194    9.39077075902908    2.67275410886791
C        -0.10137294011398   11.10408942725089    2.77419971393265
C         1.23482161247600   11.48591119432137    2.73480333436687
H         1.53744125134689   12.51307345223329    2.83578629201837
C         2.22059714400937   10.51810739389452    2.63047214721267
H         3.26840096288286   10.78881924907241    2.63393445972960
C        -2.21900311930755    4.84479582773902    1.50938732350431
C        -3.30290520808987    5.30291724744559    2.49592264175756
H        -3.05638487152268    4.98017110928655    3.50482583400056
H        -4.26090019075868    4.86940713654942    2.21965087897589
H        -3.40846975382636    6.38390754516286    2.50069807877647
C        -2.54689344356764    5.35068109941181    0.09713160814702
H        -3.48839795605837    4.92234889570049   -0.23749751799162
H        -1.76706432642861    5.05552175269233   -0.60162467735329
H        -2.63896180279460    6.43273454960982    0.07026091823307
C        -2.19936915000301    3.31474268924074    1.48500770163016
H        -1.99194001101797    2.90975862729187    2.47246100101326
H        -1.45947013980720    2.94204299350642    0.78054349930471
H        -3.17365328651463    2.94736728421167    1.17157894797331
C        -1.24122602752090   12.07646705186472    2.99067443537733
C        -2.09824537588743   11.55921591571072    4.15644122040178
H        -2.72180320657879   10.72145583644135    3.85433584583510
H        -2.75140093973985   12.34890194564647    4.51915482780656
H        -1.45167150588190   11.23180327864772    4.96717132516345
C        -0.73655517555007   13.47701813534071    3.34255392023614
H        -1.58489710488528   14.13095404360035    3.53273658776134
H        -0.15969501849905   13.90998955246064    2.52795998465698
H        -0.12490861406787   13.44265454393565    4.24034193421820
C        -2.07605225068214   12.15590445727051    1.70381644636725
H        -2.45935013360065   11.17879088439734    1.41853533822366
H        -1.47490366434881   12.54062950034941    0.88189722883658
H        -2.92074673838250   12.82385289703992    1.85466883693053
C         3.74756116954003    6.12042758744080    4.82695388541114
H         2.95562868390608    5.77238588483014    5.49089700197858
H         4.56167451234923    6.52662368193790    5.42538446887891
H         4.13254552526535    5.28385926043162    4.24446398731942
C         4.37742971049148    7.24643984979826    2.22787040285292
H         4.29142828063348    6.24457587844744    1.80639163542585
H         5.37125118886890    7.37434516568056    2.65085457522926
H         4.24463101191762    7.97753619715458    1.43074552475893
C         1.39149098768566    9.25286541831964    5.58654134760254
C         2.71876588928100    9.62666351610590    6.27088262935058
C         3.17887404053181    8.59489780454304    7.32457226627605
H         2.53372799471702    7.71968706046434    7.40059449318426
H         4.21038427922980    8.26781167506182    7.19489651752603
C         2.98299866189044    9.65145128421209    8.42231606809273
H         2.18895576532711    9.41049256936733    9.12719613022000
H         3.88719683778447    9.89355163925329    8.97792169281472
C         2.58487314177145   10.69316148752095    7.36606330396674
H         3.28658771075047   11.51573341627842    7.24201593532382
H         1.57454471361500   11.08891886902211    7.45564772411220
C         3.76761479493791    9.93842866669158    5.20449223155666

