42
CSD_code = UYOVUA | q = 0 | S = 0 | Stoichiometry = C15H18Cl2N4NiO2 | MND = 4
Ni        2.67652072617296    0.75521217730798    5.82688443362995
Cl        5.41183050694283    5.28035265906025    9.91812691333371
Cl        7.87791200594341    4.00517890653557    8.48762826022534
O         0.99055634473729    2.98025824224149    8.57106769509588
O         6.51260554769572    0.12006849653978    5.37395154222079
N         2.52411039370055    1.95143093462603    7.18924716986683
N         4.47084471406774    0.94354126713446    6.06153535543023
N         3.11717016561059   -0.49976552851697    4.37815339492755
N         0.71061769305491    0.74675577061603    5.77130726126750
C         3.72728630218777    2.55096024029348    7.58081886801122
C         3.89818739931525    3.56789281753851    8.50404160692756
H         3.05033257576113    4.00287220727738    9.00657656956139
C         5.18787858321940    4.00901097096496    8.77379126995934
C         6.28569792574307    3.44118611366822    8.13713233270945
C         6.12475196829701    2.41598673758547    7.21316833939603
H         6.97822873686151    1.97087367204332    6.72937588946872
C         4.84343576337320    1.97327220449805    6.93401639645973
C         5.29826394757255    0.10079633476882    5.41878032538914
C         4.46285476399496   -1.01244986697563    4.73039244074407
H         4.98795931041425   -1.39962122982025    3.84964681374670
H         4.37378668365843   -1.82200408691759    5.46042167117242
C         3.25814700706873    0.23769272832055    3.11309181617471
H         4.02241605096548    1.00686959291923    3.22534950382761
H         2.32587900033930    0.71947526912644    2.82536387718662
H         3.56125488903380   -0.44262489491080    2.30779446918927
C         2.15836982756962   -1.60714603370222    4.22770972319804
H         2.25649007626858   -2.25932070562073    5.10076628741636
H         2.41498990833098   -2.19417879930146    3.33374732050062
C         0.69229336524498   -1.16908422608749    4.12094552546609
H         0.10471047330500   -2.06428699501711    3.90700742038967
H         0.55526502632560   -0.49162999158518    3.27871731542471
C         0.12446541880878   -0.55377458035308    5.40610054298090
H        -0.96401493284862   -0.44516942238106    5.29182053122151
H         0.31076724929230   -1.25066150936342    6.22881960778973
C         0.23772164963503    1.80103310516075    4.86087069923753
H         0.57004450900339    1.62582149399208    3.83965993786705
H         0.62757252065110    2.76476730077325    5.18886572073910
H        -0.85825935413066    1.84581402040622    4.86720008249150
C         0.30092522003045    1.14343488052980    7.13976162449048
H         0.32688855183142    0.27420997421160    7.80308369616614
H        -0.71496252357031    1.55468981314500    7.15112277644128
C         1.31080400852052    2.16605993926745    7.72753697225741

