37
CSD_code = UYOWIP | q = 0 | S = 0 | Stoichiometry = C14H15Cl2N2O3Re | MND = 6
Re       13.28037531532297    4.42297622385459    5.54908481418832
Cl       12.48090878183940    5.51515067103215    7.35789456136824
Cl       11.28952865006863    3.40191197419282    5.24378774207904
O        13.18780010789891    5.62186314018692    4.40777278817042
O        15.80414589025680    1.56514509422590    6.92643433902043
O        13.99683980250330    2.99215672486797    6.58071493807874
N        15.40152455099425    5.00458071523033    6.04395460767956
N        14.30442939446541    3.02304723255004    4.08427680035574
C        17.46771490099097    3.95626041968703    6.57438323517261
H        18.00470955653379    3.04118566244930    6.76719918778210
C        15.58158262914264    1.62188585760664    8.33503591362503
H        14.50377253722209    1.65131002167672    8.53098847934441
H        16.03085065747066    2.54012320326431    8.74112330989566
C        15.24973286941116    2.63499871457397    6.22325085147967
C        15.21742752034434    2.30392486220760    4.72417469615533
C        16.01479519731552    1.37144771204468    4.08892504873631
H        16.73232295894920    0.80591972898139    4.65953544079683
C        16.21166261807121    0.38731332145334    8.96202576200256
H        17.27583362671623    0.37255537935417    8.71816164276154
H        15.75529716673896   -0.49777973823201    8.51688352628801
C        15.82194748730619    1.18243358996592    2.72786851702492
H        16.40787680287394    0.44916500007341    2.19477189667117
C        17.32497463876573    6.33633054310423    6.35308060166739
H        17.77158135943942    7.31696620460645    6.37789091997052
C        16.11457439230895    3.91518158805839    6.29658778629614
C        18.07973304860839    5.20099901256787    6.61379194267204
H        19.13039544308087    5.28140266173176    6.84791500734125
C        15.97763030975933    6.19614725361233    6.06336592459289
H        15.33073072334910    7.03362189106505    5.84778394265969
C        16.01829346469237    0.37594995736469   10.47228411682193
H        16.46992366244417   -0.51414688296225   10.90249216045044
H        14.95998208202706    0.38085469830098   10.72126001377304
H        16.48012269812162    1.25058758571696   10.92507435324358
C        14.86485024016229    1.93811570477539    2.06524454973593
H        14.69018666853771    1.81086295172706    1.00923353967253
C        14.12054453423680    2.85901314557421    2.78445022830306
H        13.35669771202982    3.47763817350985    2.33699681412319

