52
CSD_code = UYUWES | q = 0 | S = 0 | Stoichiometry = C17H29IN4Pt | MND = 6
Pt        0.45064208601665   12.64943713477955    3.57724548164979
I         2.87572166836134   11.43741636126694    3.99539081973573
C         0.36023821435883   11.80293983459083    1.70293001728118
H         0.37888244459350   10.71324320012946    1.77405928288752
H         1.25523715035111   12.11732696523012    1.15697512538901
H        -0.51988082218642   12.09119092531768    1.12504433199030
C        -0.65391140764765   11.06651697705123    4.29946356467274
H        -1.46948005936185   10.77589985984048    3.63614394504471
H        -1.08592557631811   11.34436048081371    5.26555026373453
H        -0.00809927960210   10.19816450251534    4.44325887456201
C        -1.35424106575592   13.61411287161125    3.29277359656641
H        -1.16788074679071   14.60413837733046    2.86938480111017
H        -1.85454206438583   13.74706426387350    4.25437268697249
H        -2.04689629649910   13.09388769823567    2.63247902026821
C         1.37249081042039   14.91587397180856    1.54423850619754
H         0.49067688775684   14.54734563506696    1.03733313970001
C         2.19513179616292   15.81610186546278    0.90820477228132
H         1.94237732836636   16.12657120947338   -0.09124120723053
C         3.35043626242410   16.29171387474018    1.55488112747560
C         3.55086226523062   15.81161193834532    2.86177159577996
H         4.39541741939078   16.12224344460398    3.45226127990575
C         2.66803935245207   14.90886533444983    3.40484700113163
H         2.84645516195928   14.53500084446607    4.40400787101242
C         3.97503959845517   17.61225985287012   -0.38612483036143
H         4.03111582686740   16.78392902838856   -1.10010106705158
H         4.72645668647565   18.34951836365443   -0.65708721134742
H         2.99299311073230   18.08380839962733   -0.47322396982919
C         5.44375330024397   17.51816902764917    1.61938387591253
H         5.25354501358713   18.07919959479356    2.53917411233806
H         6.03822533272316   18.14290486251695    0.95781911967769
H         6.02883504570222   16.62765589440326    1.86678197547128
C         0.39424882814373   14.87768770454413    5.84230941445100
H         0.11268675403865   15.47261775379778    4.98283305015913
C         0.53450287832343   15.48400161688172    7.06897963114190
H         0.36096661154245   16.54426201403252    7.14266546859155
C         0.90112711378875   14.71983126019661    8.19256292849357
C         1.09600270441913   13.34772743147706    7.95235963126636
H         1.37650345277809   12.67271519070144    8.74202700429549
C         0.93320930698592   12.84084439446691    6.68487802906178
H         1.09804887871094   11.78712610742677    6.50787631415463
C         0.81003785048115   16.67438252082631    9.63253139603979
H         1.50032311416010   17.28878976851788    9.04630737356031
H         0.94982787052798   16.91549204796230   10.68298352088810
H        -0.21487015615833   16.93901916363889    9.35609050382646
C         1.45777524307088   14.44793723048168   10.54053502331386
H         0.70738790919229   13.68194959314405   10.75830737674461
H         1.57592520540265   15.06985707294137   11.42392792101454
H         2.41295504827080   13.95510764482180   10.34047813661739
N         1.59277420706818   14.44438331142079    2.77030711335521
N         4.20590056764530   17.16407527181698    0.96598034237083
N         0.58944358351222   13.57841756719575    5.62957135783990
N         1.05700758401584   15.26860273882900    9.42269055993437

