74
CSD_code = UYUXES | q = 0 | S = 0 | Stoichiometry = C26H38Cl2O5P2Pd | MND = 4
P         4.85204442787141   11.73535856555184    8.17582900829790
P         4.54151424533873   12.28141507103223    5.18431437446602
O         2.54236176447656   13.87587020344332    5.45083291612729
O         1.05868404638512   13.49246875499846    7.84061865742613
O         0.58638181653931   10.41227944264376    7.58903699882501
O         2.11820506404538    8.34754757522261    9.13541886526937
O         4.95034888844016    8.88419664299411    9.40406327818746
C         4.11741820774903   10.39628872332065    7.13269747923921
H         3.40167643754473    9.82414504825461    7.71869050711681
H         4.94600913022041    9.73872582791694    6.84749090248990
C         3.44283124532324   10.98697448225487    5.90086836520224
H         3.23376923833478   10.21393823575330    5.15462157097636
H         2.50642428200618   11.45968271284034    6.19662347614056
C         3.71465091364359   12.94687915405765    3.67099190460195
H         2.96069164526558   12.23845629067427    3.31941893680349
H         4.44996250389824   13.13706898769403    2.88819626322725
C         3.07628293578680   14.23141364512763    4.18349460670509
H         2.27838155484256   14.60591534748037    3.52765385829137
H         3.85430196202050   14.99472769543281    4.29557708407750
C         2.59810607119864   14.86639209391405    6.46711383508169
H         3.51334504264732   14.70196306625516    7.08317124293141
H         2.64684720649876   15.86858335457311    6.02763914237806
C         1.34638271646748   14.78268656275215    7.35485626495761
H         0.47933236100979   15.17136557990879    6.80129445031435
H         1.51526489291153   15.40899972726904    8.23594842515642
C         0.18286869256872   12.74038348811965    7.03036691917872
H         0.66281223171020   12.44133342869213    6.09151193018238
H        -0.70071888199721   13.35205321354196    6.78661390527277
C        -0.28435997027128   11.50339073355903    7.79294458732889
H        -1.29374257225522   11.22785457476960    7.44750207751887
H        -0.33348373635198   11.75387093924938    8.86178574195586
C         0.11494411217832    9.24582373918436    8.22208698783570
H        -0.09078214165678    9.44529313338386    9.28324355123732
H        -0.82026047781787    8.91382878306785    7.74284944215133
C         1.15131541827598    8.12905212628820    8.13658011789382
H         1.61428270173956    8.12842388796210    7.13964311526824
H         0.65547418855802    7.15975223467266    8.29662935376412
C         3.13109138240862    7.37142035400330    9.21873429382856
H         2.72632351057351    6.43439818631186    9.62877704815615
H         3.55871453372088    7.17086069344888    8.22721935790638
C         4.22527420346959    7.92296456633935   10.13118188564178
H         4.88519739946888    7.10824277852303   10.46377174438891
H         3.75297176874140    8.37864488464765   11.01141705829474
C         5.61605699709071    9.86052505945263   10.17297902952573
H         4.92138740403171   10.31286651801587   10.89662380669852
H         6.44920007118521    9.40697529746774   10.73385893406388
C         6.14224768706873   10.91743905849990    9.21490891351118
H         6.63967816180690   11.72355118053644    9.76342113649347
H         6.86583453470320   10.47310376940348    8.52358659329965
C         3.59699694607034   12.28914870876021    9.36524951463448
C         3.63848970894799   13.63159165449054    9.73609230148455
H         4.39450602550623   14.28416611914978    9.30633492916029
C         2.73678217139059   14.12623913923349   10.65958225063145
H         2.77499950041498   15.16716061646160   10.94654378119248
C         1.78663554784428   13.28739523541852   11.21713644819368
H         1.07938508211456   13.67309285784244   11.93764575796296
C         1.74370442441845   11.95345002350147   10.84884632614071
H         1.00548230669751   11.29656048091849   11.28918588724183
C         2.64181387054403   11.44877004371558    9.92524291325063
H         2.58596215988651   10.41090654933153    9.64110287711283
C         5.88676470849463   11.25757157070257    4.49090349341006
C         5.66747409544555   10.36605825366876    3.44473042243198
H         4.67879613232744   10.27569550308030    3.01495095166036
C         6.70921224450095    9.60309598487176    2.94987365665720
H         6.53462959167892    8.91536319880572    2.13493155769581
C         7.97780189325655    9.72342413610617    3.49459800790022
H         8.79048921477804    9.12936139363401    3.10338839424869
C         8.20564686056528   10.61067091605809    4.53375884521671
H         9.19662052797842   10.71060922928916    4.95122330272612
C         7.16572264701229   11.37670871335214    5.03154115621775
H         7.35734014512735   12.09764868254843    5.84067214958401
Cl        6.14940647765954   15.04932227267250    5.38421455093088
Cl        6.87993072268958   14.20579301933894    8.51457251391387
Pd        5.54856117523635   13.38810027653976    6.84147806471083

