61
CSD_code = UYUYEU | q = 0 | S = 0 | Stoichiometry = C25H31ClNOPPd | MND = 4
Pd        7.23465822113196    1.80475652851041   12.64311436964917
Cl        9.43930552613647    0.81960682930732   12.64274678443777
P         8.33547288861442    3.73746963693292   12.79316979876673
O         8.00664357129124    1.18067177947519    9.97143356264940
H         8.43748857635174    0.97548656000005   10.83553679288482
N         6.24929493327043   -0.07003115540747   12.48245173414731
C         5.37478028256866    2.43149265901953   13.03880061288076
C         4.95638178752599    3.49687277911629   13.82455325204623
H         5.67567581899524    4.20678927857171   14.21809672376157
C         3.61221958139401    3.67705791491393   14.12273912858031
H         3.30779429535744    4.52109893329759   14.72562210926128
C         2.66711234092436    2.78177100671042   13.65705430170854
H         1.62047284146470    2.92659458373606   13.88207004346091
C         3.07264423554765    1.67690620200036   12.92667721600162
H         2.34572904259859    0.94759964372785   12.59478549239270
C         4.41433948291833    1.49837373890652   12.63031487902309
C         4.93353903856276    0.27757396333008   11.92060476867928
H         5.07821936133097    0.50144284892814   10.85550834942785
H         4.23615827373635   -0.57160026853779   12.00856677849998
C         6.12164489336153   -0.54962384264646   13.86014059319197
H         5.57162276274698   -1.50197441339674   13.89408956411376
H         5.58761207829285    0.18261080714160   14.47277285166791
H         7.11988125222884   -0.70791717982866   14.27933951977041
C         6.87494834462667   -1.11403805832854   11.67531296538919
H         6.27540069222528   -2.03461958452783   11.70190047485106
H         7.87167527389135   -1.32996250208244   12.06200686314667
H         6.96683773410255   -0.77603998484259   10.64296842085825
C         9.35292612633260    3.96099000275753   11.27460219870432
H         9.93116367784461    4.88755543065045   11.31649335749045
H        10.04133228970803    3.11382376703840   11.22868252383153
C         8.37858435251534    3.95503933227408   10.08595543356068
H         7.44507208186950    3.45212014240979   10.39355951743886
H         8.12942535939275    4.98031528757530    9.80673090065450
C         8.88609038009776    3.19985141555369    8.86036282509330
H         8.16747023493007    3.35565266934907    8.05351428839452
H         9.85309298217678    3.58554209599276    8.53361419615176
C         9.01898214283748    1.68614554410332    9.12926617269123
H         8.95512672630553    1.15257852236879    8.17219811638299
H        10.00144174783345    1.47309474154134    9.56315796011995
C         9.44156226085845    3.61644337463872   14.22536782290355
C        10.71894055595045    4.15679386545173   14.29803900365941
H        11.12005856569662    4.71646110279276   13.46478132103836
C        11.48372893061761    3.95829653668542   15.43504186944784
H        12.48132641912421    4.36966672369461   15.48897147373945
C        10.97913126251561    3.22618265685823   16.49667518569926
H        11.58389406569323    3.06905340435041   17.37769008306886
C         9.70673871207958    2.67953455922724   16.42502971267906
H         9.32210380529174    2.09582582108074   17.24870529577793
C         8.94154341959212    2.87016977419525   15.29078156462678
H         7.94755956044820    2.42122364356255   15.19864769431598
C         7.61023271467402    5.41006853999563   12.92319880448339
C         8.17985541880323    6.39929407679128   13.71485611175508
H         9.04500950292845    6.17376767022929   14.32237902991864
C         7.63449194093265    7.67165534895519   13.73431238226722
H         8.08075492835941    8.43622936240966   14.35356850320330
C         6.52048341281887    7.96414471244614   12.96604941718667
H         6.09737395525675    8.95764870564927   12.98462243967050
C         5.94344629331556    6.97790410788404   12.18152269686116
H         5.06762224993748    7.20006713520989   11.58991928362869
C         6.48291403707221    5.70572645260246   12.16202338534426
H         6.01846675217215    4.92316476869557   11.57680147773821

