24
CSD_code = UZACII | q = 0 | S = 0 | Stoichiometry = C8H11I2NPdS | MND = 4
I         2.23623461298659    6.80789158152297    6.82480466312921
I         1.08356640121944   10.18955348959721    7.76683093462943
Pd        1.85627899680753    8.09519215481203    9.01331958988639
S         1.30398407822119    9.16940580670481   10.97892594633726
N         2.70919242792798    6.61183738354537   10.33324602953388
C         2.48526440187783    6.75140575954681   11.64872040712906
C         3.18103951387089    6.01228121692959   12.59260500962831
H         2.97185992444292    6.16148197006223   13.64141515980740
C         4.13218166009963    5.07907939368075   12.19311119672959
C         4.34050790266703    4.94267707538877   10.82456842897780
H         5.06186930786265    4.23824256460122   10.44314757035025
C         3.61979538416789    5.72042935373689    9.93986935685682
H         3.77396477447299    5.61872543035617    8.87288761757286
C         1.43353433673460    7.72385481460965   12.08788830554088
H         1.60675920503816    8.07586813521370   13.10645775654597
H         0.44523602491932    7.25341686443350   12.04046777278121
C         2.90607913153822    9.96821523485902   11.28829983998742
H         2.94783942026323   10.27827877078341   12.32957246275383
H         2.94254124912399   10.84353780891598   10.64161629449326
H         3.73399895881843    9.29701002108388   11.05263798327508
C         4.87092425852244    4.25160981506018   13.18844837980731
H         4.28021750299726    3.36854392080599   13.43466514782435
H         5.04214425482689    4.80631618140176   14.10816309812341
H         5.82318627059270    3.91774525234847   12.78483104829875

