73
CSD_code = UZACUV | q = 0 | S = 0 | Stoichiometry = C24H45ClNiP2 | MND = 4
Ni        3.62659613569370   10.08620548744122    2.48965449688155
Cl        4.04369146116134    9.21387409703886    4.38882599453762
P         2.78579274706071   11.48884125692122    0.96070275206096
P         5.69309291084601   10.91256152856685    2.17848420778855
C         2.50774727236125   10.03280802987602   -1.38611643388527
H         2.69878886048671    9.16068062272122   -0.76423389729158
H         3.44798008890209   10.40392638749326   -1.78570099565362
H         1.90335330032684    9.70972863096890   -2.23286551701410
C         1.73969941925932   11.09003998327953   -0.58431068733611
C         0.46694826932796   12.63069751150284    2.13677549422947
H         0.28244396724373   11.58659986403750    2.37647710757943
H        -0.09153994110447   12.90234195242200    1.24494803241297
H         0.08834469272590   13.23950679966901    2.95775000304170
C         2.16479280306435   14.30441073413608    1.41273201592210
H         3.20651517704796   14.61315141756945    1.46655244967115
H         1.58962259166975   14.99866445719195    2.02503728811698
H         1.82139682991042   14.40520156987411    0.38662444039396
C         2.62723369473213   12.80211777032409    3.33670527520588
H         2.60454199453119   11.77030724920461    3.71664738490947
H         2.11510528852554   13.43869468047263    4.05707481233611
H         3.66209592027056   13.12525002565693    3.27791755461282
C         1.96266551260589   12.89071144624170    1.95967808629243
C         5.50604351360433   12.38992719136196    1.05287011745671
H         5.44267859810199   13.25628211735195    1.71618952018536
H         6.39506808781393   12.51717338087255    0.42931771006855
C         4.25164730975048   12.33970829716718    0.17530490021566
H         4.46960756956250   11.77699160142392   -0.73162681158459
H         3.97210943502355   13.34918357471349   -0.13227403691555
C         0.41291484773387   10.43683698424773   -0.18083822004082
H         0.56166879948737    9.72215581506126    0.62519071934223
H         0.00153173779571    9.89735257186591   -1.03319920459094
H        -0.32780877605431   11.16526602249346    0.12749045447741
C         1.46817250811933   12.30121831458779   -1.47364382449361
H         0.85332779820143   13.03714913708913   -0.96292230107478
H         0.92479262154308   11.97729173177186   -2.36102777208417
H         2.38892122976688   12.77696322717043   -1.80294152846077
C         0.94881281319241    9.12154591940129    3.29285449493435
H         0.83394438803378    9.94279600138452    3.98815269890393
C        -0.07065573657776    8.18840241037123    3.18355055898916
H        -0.96996187835678    8.31456504382121    3.77007907717157
C         0.06112443982413    7.09913756985364    2.34122105114434
H        -0.73549622108707    6.37388278379854    2.26033438780030
C         1.22973091196315    6.93182790029666    1.61957521644264
H         1.35420416321421    6.07117672204759    0.97694891426768
C         2.25027361434118    7.86330556890922    1.72121260565419
H         3.16707771582680    7.69328888009524    1.16023424552228
C         2.11204941257852    8.98226857847930    2.54297062071594
C         6.54146257663164    8.29835202627708    1.88165729416203
H         5.50972671152026    8.12575533684612    2.19950115474487
H         7.16785399558517    8.26930761103704    2.76670235668199
H         6.84157481493355    7.47955554367944    1.22778032033261
C         5.86008800246615    9.48886694007852   -0.16608168044007
H         4.79346929631431    9.41488655871214    0.05096698208802
H         6.16277157629155    8.58117703178370   -0.68805776384400
H         6.03884086517285   10.32853519862111   -0.83438542812422
C         8.09634890190301    9.95235783162700    0.79897584308648
H         8.73782020947743    9.91342124162741    1.67448840638850
H         8.19178867503029   10.93063513253313    0.33008215478508
H         8.46326064763337    9.20841946413779    0.09097387075146
C         6.64422291614319    9.63461687752438    1.13992566211180
C         7.97079430884687   12.50710020081469    3.01736560206557
H         8.65538317308211   11.99374936065457    2.35116350633729
H         8.54348789617292   12.85593001577426    3.87669419043533
H         7.58195400127798   13.38431853387938    2.50486294175586
C         7.42902247178386   10.42661365670709    4.31572314911244
H         6.63122653283572    9.74065315699787    4.59758896892855
H         7.89230811369403   10.79972011122316    5.22859844346707
H         8.19205172782476    9.89194049506210    3.75672443488873
C         5.96161260119391   12.39400492911279    4.47868247846232
H         5.11396880981830   11.78751944775586    4.79478782283792
H         5.60490501894059   13.31785446313734    4.02589316723447
H         6.52939258562371   12.66731646055135    5.36686186358983
C         6.84987566975070   11.59597352559620    3.51854079930159

