62
CSD_code = UZADUW | q = 0 | S = 0 | Stoichiometry = C19H38N2NiP2 | MND = 4
Ni        1.66612969731258    1.95910491354480    4.85831097535840
P         2.05110476835437    2.51096446993212    2.76735444609751
P         2.90993887914045    3.54955804873267    5.69172705875329
C         3.19802791383192    3.89059686544774    3.01118251861552
N         3.53157179898116    4.33271096725903    4.27246926900593
C         4.37986451277328    5.39234709815500    4.07307295852986
H         4.81386461272650    5.95322794090845    4.87400842693729
C         4.51336736584614    5.54278351162861    2.72424703433134
H         5.09291564216833    6.26171050145719    2.17814482337099
N         3.77022374124988    4.60786463348598    2.07869066537869
C         1.14197416550217    3.14262717271461    1.27011987385384
H         1.89408825476009    3.46680112688143    0.54546298950919
C         0.27596319131433    2.02603832535860    0.69679755670348
H        -0.38170338400326    1.63004726197731    1.47029030410787
H         0.88204430502251    1.20967109087292    0.31107112067617
H        -0.34181313898056    2.40418895361223   -0.11639730815430
C         0.27916382183102    4.33912791683997    1.65521037473816
H        -0.43191231252891    4.06187265043801    2.43259171836437
H        -0.27954910411541    4.69634533889915    0.79135964550801
H         0.90208973033872    5.15564157122252    2.01587450305940
C         3.17963618917278    1.22183946311324    2.02423364434858
H         2.52124536457319    0.37974034609548    1.77414434220793
C         3.95514652002683    1.65746372939196    0.78818059273238
H         3.30943833813908    1.72303161168597   -0.08366257764320
H         4.73953293277125    0.93266794146576    0.57318106492721
H         4.41416842363417    2.63080446847853    0.94940647798655
C         4.11344932438103    0.77496279998481    3.14727916373955
H         4.88452468091923    1.52709814928347    3.30639827869650
H         4.59704646948695   -0.17188960897126    2.91127900624994
H         3.53893925797136    0.65185659897982    4.07829206858851
C         1.69840590674200    4.86922956557455    6.30892505771431
C         1.25029732018274    4.48274494800013    7.71715648797934
H         2.01888894430782    4.68747530809638    8.45824821624494
H         1.00384125114893    3.42178263752825    7.74785598990379
H         0.36099116929226    5.04832780511414    7.99393654631530
C         0.51117797172972    4.68460418027975    5.35555476605328
H        -0.36438561774366    5.22687622579629    5.71023573532510
H         0.24933572779622    3.61438731035937    5.27931486943121
H         0.76233440520072    5.04978631270460    4.36122944668385
C         2.15255879857538    6.32394132023111    6.25876254138956
H         1.31985553510873    6.96340073609052    6.55251476535784
H         2.44814001753891    6.60857492848726    5.25101705642624
H         2.97814292410059    6.52210666518773    6.93522952905168
C         4.43402214957931    3.44669648147046    6.81874709509569
C         4.06470154525367    2.38345316437518    7.85836043401716
H         4.93916067885536    2.11024390689396    8.44727172905605
H         3.69185915696216    1.48925258807899    7.35970088130730
H         3.29507599652527    2.74048693008847    8.53750337098822
C         4.89620254103311    4.71068295407070    7.53656536316358
H         4.13326987823062    5.09167936563084    8.20976205862059
H         5.18016853293292    5.49701007535029    6.84326546578260
H         5.77465524472837    4.47133481539839    8.13686427005566
C         5.57491379636058    2.89230429557385    5.96289286294191
H         5.89728147601953    3.60465466579446    5.20574248285637
H         5.25726871559003    1.97606288858787    5.46857580521481
H         6.43249165724750    2.65710163817591    6.59227933720738
C         0.92137961229793    0.63674318979817    6.18763062341480
H         1.70599318054602    0.00371486956130    6.59701236441099
H         0.29446831280203    1.12363107175331    6.93124373954591
C         0.42827259404653    0.39132813042402    4.92170506133672
H        -0.58004760986154    0.70454171552471    4.65781722823404
H         0.82679622426951   -0.42766654887066    4.32705780229274

