60
CSD_code = UZAHEJ | q = 0 | S = 0 | Stoichiometry = C26H27Cl2FeN3S | MND = 5
Fe        3.39698527361872    7.82777390520674    3.61823516304984
Cl        1.48310400895952    8.10215637027814    2.94350842640816
Cl        3.64417874871987    6.13666039343456    4.82886416734331
S         6.17672234652452    5.95483361512965    0.68174926251538
N         4.07704279661547    6.79165319615860    1.96122603690048
N         3.27088719628471    9.16122776198927    5.05617116919248
N         5.10694009904975    8.29604584237880    3.70493606265265
C         5.39058980687943    6.91463538186878    1.90277794937906
C         4.42886515396778    9.59259976273981    5.48173601420117
C         4.61514163156160    5.32219765695513    0.23615996772624
C         6.02371081247045    7.77535705786561    2.83908129374244
C         3.61046394611641    5.89316135124773    1.04443681053998
C         5.53675077089700    9.11823715329417    4.70801601485721
C         4.61435660127886   10.51990228508926    6.64035882220648
H         3.65346442979309   10.88429901700638    6.99502015540275
H         5.23993281441589   11.36477860922763    6.35758981296029
H         5.11053904820319    9.98799532355737    7.45203786130524
C         2.07154019859563    9.69223979909184    5.58034778137333
C         6.88381164355544    9.43012589886900    4.85228899979694
H         7.20172330336507   10.07076646147175    5.65879051616126
C         7.37652347166806    8.07398777793277    2.93744915930821
H         8.06673896958976    7.64241897559556    2.22988273515704
C         1.44347870485710    9.10462633366258    6.68312341002085
C         2.28353086365607    5.51022351964266    0.85582804774330
H         1.51665588014476    5.94706794907876    1.47420342949292
C         2.99494007199343    4.03093103697491   -0.91697401723624
H         2.73791231367666    3.30709499672178   -1.67510863865019
C         7.80799922989969    8.90865649445333    3.95769859660403
H         8.85511732190203    9.14468090142722    4.05903142670454
C         1.51423508200485   10.81015952968172    4.94024336803934
C         2.01968629645490    7.87996373678634    7.34968377091543
H         2.97768199552490    7.63847899797674    6.88203967292089
C         4.31649988764748    4.39510111912205   -0.74697431337715
H         5.10016517966428    3.97119885263900   -1.35473503499450
C         1.99264534488430    4.58324920976662   -0.12143401511657
H         0.96882573066257    4.27800362174656   -0.27370814038214
C         0.33550469628705   11.33894061293283    5.44297253667410
H        -0.10091066354163   12.20674914458223    4.97340767411432
C         2.77942076587069   12.80476821754352    4.12805504027583
H         3.28355424195200   13.24992822280607    3.27283125881808
H         3.49964556138392   12.69730505019526    4.93596819934378
H         1.99607594999697   13.48364655469913    4.45714746617803
C         0.25616812625349    9.65831262665577    7.14178831349824
H        -0.24374270772698    9.21328728495607    7.98810318816818
C         2.18367726015332   11.44778763211530    3.74327262336703
H         2.99916777378287   10.79234561438125    3.40706934808220
C        -0.29241010912298   10.77054980563570    6.53504962117763
H        -1.21296871288098   11.19343564971098    6.90928680518640
C         1.08716049785515    6.68823924703398    7.12490385550942
H         0.93165700517758    6.53764044703194    6.05924702443268
H         0.12174236946138    6.85021791883915    7.59904035337329
H         1.53456675526908    5.78581281938994    7.53324728730256
C         2.26067756994316    8.11397122425434    8.84225066584971
H         2.88727820457306    8.99000393835761    8.99979622273835
H         2.76097201481948    7.24995745967922    9.27304482927552
H         1.32385159736252    8.26416920745979    9.37327666088789
C         1.20999140594116   11.59896296361796    2.57365926632256
H         1.73996238246979   11.96564162712938    1.69683962343776
H         0.41491018668006   12.30142666107036    2.80847209856970
H         0.76646085293894   10.63611017385033    2.33468829255473

