68
CSD_code = UZAQOD | q = 0 | S = 0 | Stoichiometry = C21H40N2NiO2P2 | MND = 4
Ni        2.16944141107020   14.17004298197316    3.77628706728628
P         2.81225528541396   12.36157092967478    2.65120218485559
P         3.40226818198262   15.55320036246429    2.63826534045295
C         3.91404378668767   13.15219185400757    1.44974803806115
N         4.17995514607421   14.50401173981780    1.49873300350342
C         5.09677172654722   14.73050970092425    0.50333130534552
H         5.51983978873327   15.69321800121522    0.30776557139021
C         5.32783744478986   13.53054608660873   -0.10160395826564
H         5.97942650482024   13.30043063115892   -0.92206627470025
N         4.58498062247563   12.56289018869816    0.49386268889178
C         3.94747406543321   11.06276585508388    3.37644540703339
H         3.32786314779724   10.53237646905225    4.11253944703889
C         5.06887089243234   11.78149398217970    4.12221163031753
H         4.65619291081731   12.54743960493251    4.77958517745563
H         5.74368034162052   12.25687737705536    3.41251392455536
H         5.64502678146856   11.08040415014556    4.72531172462958
C         4.51689362220602   10.06530790511251    2.37458198309600
H         3.76206044731510    9.36325208046333    2.03087330741202
H         5.31480290407447    9.49429947444866    2.84763345367411
H         4.92634821083398   10.59056656973093    1.51432001140114
C         1.75578002785911   11.33067209535254    1.51377408595156
H         2.41948723224707   10.76520237339834    0.85461098667710
C         0.88996042465497   10.39537089023092    2.35197133494155
H         1.49198811232531    9.66498191018939    2.88751568374091
H         0.18733918741864    9.85720713451269    1.71720794079554
H         0.32038267607018   10.96971654011656    3.08225517106837
C         0.88261836017756   12.25159783354872    0.67134491626857
H         1.49979119136378   12.84971175427479    0.00453470577682
H         0.30851924131907   12.91914522522570    1.31403699720327
H         0.18770822553390   11.67196851621890    0.06579082642485
C         4.85694773689510   16.44829872083206    3.45611819774579
C         4.28025776186322   16.97854967444864    4.77205932380917
H         3.55315638978813   17.76869974185326    4.60232190552706
H         5.07665922368509   17.37602868823702    5.39945221908393
H         3.79555992266970   16.16198892488056    5.30891265471261
C         5.53887901398510   17.57677905637410    2.69094212265950
H         5.96418384540489   17.23121354863193    1.75243829747561
H         6.35728771412517   17.96524735636071    3.29762193873449
H         4.85739216769114   18.39998840976765    2.49399184174588
C         5.87475574366254   15.36059559746226    3.79836519149552
H         6.34686269819034   14.95036562773500    2.90724285539204
H         5.37345781411396   14.55828140340251    4.33651720579483
H         6.65481121123787   15.76630254720932    4.44071498824950
C         2.44275307744549   16.70642285445702    1.47823114911020
C         1.88683130730582   17.84299775773623    2.33506221443694
H         1.45702782029330   17.43994973182711    3.25092615013677
H         1.10390736100006   18.37177402225822    1.79268430116535
H         2.65861203585046   18.56367572590514    2.59377346493990
C         1.27881197215923   15.83163078628883    1.00507733166610
H         0.82340539456420   15.31980523281434    1.85957502883834
H         1.62970025562488   15.07883151609778    0.30226896251185
H         0.51689282345550   16.43240904318348    0.51141533838867
C         3.15993116025072   17.26203971790977    0.25233288970777
H         3.47187696101962   16.46277813889167   -0.41559808239852
H         4.02394427574191   17.86464630528513    0.51212523755657
H         2.46500360290206   17.89724723991553   -0.29740364952107
C         0.70418199016518   15.15847474302641    4.77957645374693
H         1.29173298266891   15.78181780795921    5.44970648599099
H        -0.15356391215800   15.64439933755462    4.32703942161877
C         0.65934244289861   13.79025284641692    5.01398555827608
H        -0.19216145593731   13.16639448918360    4.77531469520765
C         1.74367115099012   13.20201996845168    5.77967197089226
C         2.47527254017803   11.35938777179141    7.04109071534439
H         2.19399278484210   10.31284096455091    7.13731521622556
H         2.54134387169212   11.82349973642235    8.02861938045936
H         3.44213283393095   11.45509020250577    6.54399761231937
O         2.82326229167906   13.75805742899206    5.98316402051987
O         1.45717528658089   11.97954711557509    6.27686570814991

