68
CSD_code = UZASIZ | q = 0 | S = 0 | Stoichiometry = C21H42O2P2Pt | MND = 4
Pt        4.12069267100164    4.06850138585683    0.86014128976382
P         2.59564016004328    3.29627550543908    2.45689891267727
P         5.29167180375322    2.35935142011196    2.06770493629165
C         3.84980798123324    5.63483845889255   -0.41457286119208
H         3.23102863927774    6.48717582822428   -0.61603426991500
C         4.91557163098530    5.03389139054955   -0.79355575912319
C         6.00149294822143    4.89761204025473   -1.73046595826244
O         5.88833322491211    4.62934860040683   -2.90444438993075
O         7.20602135982885    5.09414830584072   -1.13336598940621
C         8.33482881724333    4.97367983371292   -1.97698030207416
H         8.31746073600403    4.01569496052356   -2.50264689855135
H         9.20714092812420    5.04050136702081   -1.33077778683883
H         8.34711566984342    5.77715557595543   -2.71757085561296
C         3.84073525211762    2.13205469538942    3.24976476461327
H         4.09596098596004    2.43052538813662    4.26587082041642
H         3.48653777890234    1.10403097781193    3.27469915613561
C         1.38796084442363    2.14438181113509    1.53093586767791
C         1.13320253238531    0.78634176375954    2.18617397710593
H         0.86050293597851    0.87748877891575    3.23351084609357
H         1.99982297478899    0.13419834618103    2.10846145280159
H         0.31256705458112    0.29157229162201    1.66731283681479
C         0.05278007285745    2.84668131767345    1.28029133334718
H        -0.49384611803438    2.30939031492716    0.50537776913962
H         0.22021106225893    3.86190410910515    0.92755751137523
H        -0.57342405369070    2.86764905759043    2.16778792303754
C         2.03560061466734    1.93636077499362    0.15714043489631
H         3.05074429241015    1.55861138706075    0.25537324980912
H         2.07330603191675    2.88386491289300   -0.38769000097738
H         1.45850740756389    1.22516954438472   -0.43288168304917
C         1.66110122485147    4.09392312716969    3.92121419502103
C         2.69995462055067    4.80030698544270    4.79457697654475
H         3.30091768478778    5.47534086105108    4.18914837646425
H         3.34773058563792    4.09487734874763    5.30945633917080
H         2.19529863198901    5.39020302466934    5.55925343639205
C         0.88856948201164    3.10105719253875    4.78326979934005
H         0.50184497520386    3.61084836169419    5.66576291228344
H         1.53636718860507    2.29298486764266    5.12023676377154
H         0.04239490698020    2.67590178591872    4.25157631636509
C         0.74782421158717    5.19060819237759    3.36553198262217
H        -0.19181721281748    4.80007423681501    2.99260204905613
H         1.25521462164630    5.71789934697734    2.55751482019182
H         0.51550907149497    5.91336578746432    4.14653327035941
C         5.92060208278009    0.56494543231093    1.84085960916752
C         7.30495849309117    0.58992248908025    1.19425999599247
H         7.54802055213302   -0.39849513934353    0.80425080850424
H         8.07776626987551    0.85959912651422    1.90843269917986
H         7.32104548262230    1.29326142223183    0.36303073340225
C         4.97180412812337   -0.09988238486958    0.84007436017919
H         5.32211069632352   -1.10491164714875    0.60569472260893
H         4.93927333425357    0.46869718016763   -0.08823537075876
H         3.96472054268527   -0.18872643185473    1.24075668804853
C         5.95344669983851   -0.27941609469109    3.11393835043198
H         4.96566671255769   -0.38371302513697    3.55660719762755
H         6.62230169056165    0.13090946512609    3.86166270507638
H         6.30726491828747   -1.27960082966644    2.86271148232716
C         6.60979139521337    3.33249738483848    3.03404261372212
C         5.91787740018003    4.60925734642922    3.51758882374335
H         5.30861504821840    4.41924041181197    4.39428444112138
H         5.29027988218179    5.02387785559664    2.71284797971765
H         6.66139504660707    5.35887060869840    3.78435083099013
C         7.24774337123929    2.63701848053085    4.23291054008170
H         7.83226673626399    3.36453453239953    4.79652100519986
H         7.92340634752365    1.84233509915039    3.92822410867530
H         6.49334808908596    2.22614532895074    4.90241947205193
C         7.67610325065998    3.77166651506769    2.02670964078192
H         7.20057747647673    4.22923917775608    1.15884013890235
H         8.29988532159683    2.95129729158534    1.68977422339084
H         8.32774279990568    4.51543914172312    2.48434863513858

