65
CSD_code = UZASEV | q = 0 | S = 0 | Stoichiometry = C19H40NiO3P2 | MND = 4
Ni        2.87811613569243    3.12713852409520    3.01513669336782
P         3.15463916276897    4.15814948675182    1.11695999759458
P         1.04389217328603    4.22043364902606    3.44284916533987
C         4.03994849531653    1.54324554031317    4.11136977490185
O         3.03846327309425    2.24928644659119    4.60255648086960
O         4.24083753050520    1.92844145467838    2.86485974185210
O         4.66167076107850    0.69628907328174    4.69794322597088
C         1.89794301079460    5.53892504075178    1.11725560688574
H         2.35824275741668    6.38159231301402    1.63421414133113
H         1.66428038377597    5.85829136151240    0.09888968492408
C         0.62563037503013    5.12072591555247    1.86176058608659
H         0.05917774450950    4.42264500251502    1.24449357832301
H        -0.01133406270725    5.98621094048715    2.05875934346020
C         2.96249345339493    3.31424150201370   -0.56890811659462
C         1.47423646210337    3.00497572069976   -0.74406792422613
H         0.87785520417615    3.90915686863650   -0.84576017754760
H         1.11821221079651    2.42322272037591    0.10189296138741
H         1.32745314246399    2.41014486794556   -1.64480800876707
C         3.71032127526012    1.97979668621229   -0.49658118258068
H         4.78055440628389    2.10745814254781   -0.61843180495891
H         3.36128009165749    1.31073437090081   -1.28163357821911
H         3.54021042419743    1.50143752269694    0.46839030853736
C         3.43495898609693    4.14527851112225   -1.75769483269184
H         2.98777717740601    5.13757711599520   -1.75498094144555
H         3.13894811626018    3.64718400523702   -2.68055785719651
H         4.51601505556494    4.24386946657304   -1.77272131712998
C         4.81793777918668    5.06191441192522    1.21857812566748
C         4.96899121196362    6.29758861275623    0.33222997970318
H         4.15029017597167    7.00033005797406    0.47018846464404
H         5.02829485013537    6.04186070059689   -0.71996989159301
H         5.89340290106527    6.80784646170350    0.60097147307542
C         4.93951168890976    5.48829305760371    2.68837486509245
H         4.34026233000891    6.37310555681980    2.89328478367505
H         5.97439834324793    5.72832989783958    2.92605950297444
H         4.62630085836030    4.66933826717825    3.35684833517643
C         5.92602319293525    4.04756302274435    0.93430340099645
H         5.74321162446236    3.13267967188454    1.49769935561023
H         6.88836521376290    4.45358345880787    1.24317113559039
H         5.99376782676903    3.81252794601249   -0.12430485212019
C        -0.33752427096322    2.93290323473124    3.60820263686545
C         0.03596369338067    1.83039007032003    2.60727641620884
H        -0.22398674782877    2.11629919031019    1.59008286475081
H        -0.50217610237683    0.91312506038182    2.83997646310814
H         1.11408409140159    1.60618167623744    2.66177499075945
C        -1.75277201410581    3.42015379978806    3.30010034943774
H        -1.81322677179122    3.90794585909326    2.32977262724443
H        -2.12252362420357    4.10716410580481    4.05329003253247
H        -2.42064080719510    2.55952686624406    3.28120916634228
C        -0.26007195933624    2.33340447288512    5.01256442823119
H         0.77418714872622    2.08770761489718    5.25299897353981
H        -0.84906720780007    1.41832371425835    5.05809158519969
H        -0.65334306013963    3.01425871060305    5.76241441712190
C         0.89958996974091    5.52486911786531    4.81008401434024
C        -0.52346110458268    5.98905150733259    5.10384877114140
H        -1.03570922989255    6.30654492608208    4.19751958187683
H        -0.48695512161949    6.84012163082149    5.78338739135276
H        -1.10681783510003    5.21119747742602    5.58672016657907
C         1.56014992591345    4.94388941984556    6.06363264916822
H         2.47197831447219    4.40801560975462    5.79832796157934
H         0.90712918077484    4.24962988771409    6.58145262061906
H         1.81702138364689    5.74300634458166    6.75736321581355
C         1.72841789086158    6.73074726909460    4.36303552228082
H         1.29580894790089    7.22552456810124    3.49613033685164
H         2.74345294113317    6.41526527915933    4.13755953622793
H         1.77641062597790    7.46123921329606    5.16976305286378

