79
CSD_code = UZEBIL | q = 0 | S = 0 | Stoichiometry = C38H30N2O6P2Pd | MND = 4
C         8.91533516303902   -2.15306283877265    7.75742834911288
C         9.29604207332136   -0.96462465172284    7.13868887141329
H         8.53985131782227   -0.23169423435869    6.84643303884924
C        10.63368909328709   -0.71730110288202    6.88240805366067
H        10.92690066586041    0.20447030957771    6.40218432401352
C        11.59368255579333   -1.64777998063819    7.24444478904802
H        12.63822414108558   -1.45175338721368    7.05052259827020
C        11.21813317409519   -2.83176274473003    7.86030650139793
H        11.96802110096493   -3.55670441492040    8.14278323434400
C         9.88397743852988   -3.08628447061376    8.11843747376181
H         9.58780245105696   -4.00700471271711    8.60433042705709
C         7.17140107691739   -3.35929398803516    9.61599739293169
C         7.88798681279634   -2.84760265941924   10.69377148070651
H         8.40098073023794   -1.89944586056115   10.59981973792863
C         7.94494034660657   -3.55309018459975   11.88049145309850
H         8.49437362622660   -3.15024901096739   12.71821606552931
C         7.29425427163684   -4.77117800611937   11.99559750952059
H         7.33778358219275   -5.32067642189881   12.92445884769701
C         6.58741821856925   -5.28468392784495   10.92109323175000
H         6.08297228566402   -6.23598500629057   11.00984319639680
C         6.52125334539566   -4.58137051271442    9.73170636113158
H         5.96668271576343   -4.98046951943275    8.89349661542867
C         6.60464701914113   -3.50924595594671    6.76511243634238
C         7.51091526405409   -4.10149969858103    5.89219137858419
H         8.57104709717473   -3.94576989330733    6.02923870886897
C         7.05808195296202   -4.88664061184840    4.84774834449621
H         7.77191512001585   -5.35308222353996    4.18502610585708
C         5.69706773561284   -5.06856716096342    4.63372861690925
H         5.35902449563561   -5.67300096031659    3.80554056945893
C         4.78135042145110   -4.45954144721601    5.46666148076801
H         3.72005595794888   -4.56645731208717    5.29917583812287
C         5.22679488324964   -3.68865466621044    6.53748340988706
C         4.33718003124552   -2.95477596567957    7.42127325734136
H         3.27436719986016   -2.89559330477832    7.16232610060114
N         5.66146049103853   -0.59527509298839    6.18202620624490
O         4.53066794000489   -1.05165179583931    5.97065813493046
O         6.44007211434262   -0.31692041766337    5.28071099653197
O         4.78123726845858   -2.43944904980191    8.44159071433009
P         7.12717029747569   -2.37797855062725    8.08935086776969
Pd        6.18686162441020   -0.26783849243179    7.94284346744281
C         3.46005217713263    1.61921784351606    8.12701993224634
C         3.07842355481873    0.43010184535821    8.74388722029336
H         3.83405937713238   -0.30389886872865    9.03511458814929
C         1.74056591115676    0.18320830455731    8.99943938092991
H         1.44663454134707   -0.73925627926394    9.47796709295888
C         0.78126703158864    1.11485457986903    8.63860854289275
H        -0.26344508832937    0.91915537515826    8.83195451890029
C         1.15770206586580    2.29949347736224    8.02457409469295
H         0.40831784232629    3.02531669932842    7.74302883481533
C         2.49207371877167    2.55353690727591    7.76707571915877
H         2.78895066188221    3.47473542308483    7.28249267791634
C         5.20546756393267    2.82418885217421    6.26883205036131
C         4.48838719696145    2.31317299735617    5.19107762351838
H         3.97410541180078    1.36572249514474    5.28522737268569
C         4.43259994816747    3.01839913591956    4.00414203427118
H         3.88262500480250    2.61613154368588    3.16646973467719
C         5.08493818602899    4.23557379681395    3.88878690057512
H         5.04225615144965    4.78488533151997    2.95977494539019
C         5.79226405956977    4.74842573538430    4.96325973097152
H         6.29810601165233    5.69898217497870    4.87427958724316
C         5.85728388796668    4.04535935812966    6.15285759454238
H         6.41240027582606    4.44392440777464    6.99098188340968
C         5.77149435131608    2.97476889059236    9.11946830524059
C         4.86543252475951    3.56930023488176    9.99104413512622
H         3.80517006307421    3.41495260344221    9.85341079101426
C         5.31862878413538    4.35494127550274   11.03496179142997
H         4.60497469005418    4.82335238800460   11.69648934671123
C         6.67973872031896    4.53496791716451   11.24994169317359
H         7.01805168110738    5.13989872886960   12.07766616682694
C         7.59519793036381    3.92367600514210   10.41837978200349
H         8.65652737104555    4.02918140860026   10.58654719087745
C         7.14942094193023    3.15247980555575    9.34794510226200
C         8.03871539717631    2.41706192787081    8.46506351754553
H         9.10129119209506    2.35660730919210    8.72475600358161
N         6.71168041068754    0.05942781745609    9.70387256264270
O         7.84237232606993    0.51568168159389    9.91612329041624
O         5.93243303305570   -0.21903839405610   10.60457712283640
O         7.59466925208701    1.90228902014240    7.44445745060549
P         5.24844273792244    1.84311017034762    7.79569749957101

