76
CSD_code = UZEBAD | q = 0 | S = 0 | Stoichiometry = C38H30CuNO4P2 | MND = 4
Cu        7.14473773617646    1.90031238034889    4.41080607301546
P         8.02728108112125    3.15558380272258    2.61637865259368
O         8.03408356339616   -0.04238875787731    3.84763924986525
O         5.96917282897280    2.14298259558894    2.87201149472978
N         7.14467468045998   -0.72711196162507    4.40941737422156
C         6.98049296645060    4.56011807068744    2.10829820517352
C         6.06045781170167    5.09047965209970    3.00239455906200
H         5.95355195653962    4.63919592801624    3.98209889818719
C         5.27512488423439    6.16670408980902    2.63363202915983
H         4.55810510538399    6.57228748951791    3.33256777784660
C         5.40793184173945    6.71708235806088    1.36891997006016
H         4.79664682900781    7.55910363562252    1.07869489581747
C         6.32083357352360    6.18535660792680    0.47191003587327
H         6.41942064215339    6.61172450375410   -0.51606383082904
C         7.10650254357980    5.10657049255922    0.83601345143277
H         7.81942595137891    4.68661313351607    0.13900712045289
C         9.71798146338680    3.86733376032353    2.57033583032313
C        10.02629877431163    5.21590149306695    2.44219999295798
H         9.24372873727943    5.93454939930887    2.23968371381180
C        11.33979254789021    5.63669942028313    2.56567736593117
H        11.57914346038002    6.68499331359159    2.45424640305210
C        12.34548256888200    4.72307462636776    2.83283305421336
H        13.36781454662119    5.05887559564173    2.92832327352584
C        12.03895166655166    3.37954963812308    2.99249096863360
H        12.82126042883574    2.66919103402387    3.21733656848652
C        10.72969747527500    2.95754469894741    2.87726706162614
H        10.46070011802510    1.91698641085060    3.01922099073151
C         8.02929710284136    2.08744757510154    1.16352948459390
C         9.07333609680825    2.04519051007624    0.24074717995205
H         9.91111214881777    2.72044297915494    0.34588254857979
C         9.03832610260302    1.15460184104330   -0.81229128586231
H         9.84083370455713    1.15066176289645   -1.53534176095975
C         7.98190423506983    0.25497503839839   -0.94970059825840
H         7.97865111882767   -0.44530146840743   -1.77162153109338
C         6.95654391005275    0.25358357317857   -0.03474100822299
H         6.13739025340412   -0.44537445420068   -0.11725507582206
C         6.95894851557073    1.17562926483503    1.01934935680916
C         5.97313047475964    1.20464418074172    2.04847811747063
H         5.29175279929879    0.35847374456731    2.16987661089835
P         6.26178070509585    3.15529450074314    6.20488326891120
O         6.25516331744350   -0.04393197431626    4.97259757731535
O         8.32049222619917    2.14298856407615    5.94984113541520
C         7.30868473564944    4.55984360434899    6.71281754377736
C         8.22873306450506    5.09024169551463    5.81879230954897
H         8.33559876098197    4.63916444189175    4.83899031141950
C         9.01403648420938    6.16649617316235    6.18763343804316
H         9.73106314627523    6.57214268220267    5.48874012793605
C         8.88113198213479    6.71689123336232    7.45231541233914
H         9.49260144983058    7.55871561079101    7.74272100220405
C         7.96807270041220    6.18522446280954    8.34922215732236
H         7.86963994162428    6.61147742399279    9.33726979283579
C         7.18251151832665    5.10637137915474    7.98508901461138
H         6.46953986065255    4.68645654750945    8.68206608623316
C         4.57108219748180    3.86707198884618    6.25146297552837
C         4.26282149141597    5.21565474552961    6.37961168651380
H         5.04547892481953    5.93432838626460    6.58168835478044
C         2.94939400601215    5.63658527014941    6.25582333446357
H         2.71016291517319    6.68492405039378    6.36707053203116
C         1.94368944575459    4.72305825187107    5.98842342741991
H         0.92136849081664    5.05889914005536    5.89294718356396
C         2.25016449467906    3.37952238032884    5.82875748502744
H         1.46782183398751    2.66917580222574    5.60402324026756
C         3.55936057300871    2.95739607431823    5.94425354227034
H         3.82826020066912    1.91683378551613    5.80221074027821
C         6.26002604911849    2.08753646707793    7.65804149012010
C         5.21611412215078    2.04558959839838    8.58101277236115
H         4.37842851467299    2.72097479725660    8.47591129766947
C         5.25102575084953    1.15498148420885    9.63404985523705
H         4.44855721954823    1.15112184412985   10.35714499872211
C         6.30700902809578    0.25474569568290    9.77105132796685
H         6.31010712780720   -0.44560629526464   10.59291512037264
C         7.33231528268501    0.25319493953283    8.85606244810553
H         8.15141764730537   -0.44582789417401    8.93855018280523
C         7.33029079499390    1.17558554591556    7.80223907402929
C         8.31665717130376    1.20493256412942    6.77369984908019
H         8.99807457843992    0.35875707370575    6.65241668542709

