45
CSD_code = UZEFUB | q = 0 | S = 0 | Stoichiometry = C19H20N4ORu | MND = 9
C         7.26495782832486    2.61855459628822    1.36110098783658
H         6.48820824372731    2.67990552443385    0.60861170491771
C         8.45044266273192    1.91728001201131    1.10614210157369
H         8.58150164063384    1.45037931885263    0.14242192143074
C         9.41540827839434    1.82840659203221    2.07398205315631
H        10.33501903752041    1.29092089089519    1.89807407795189
C         9.19674976168775    2.43972651942525    3.32847727620031
C        10.08898998813245    2.41109842429885    4.40864164159646
H        11.02798903495436    1.89093410512429    4.30261950587774
C         9.75271244278199    3.02835870658250    5.59402423952825
H        10.44628308084790    2.99174119005228    6.42163984815137
C         8.54721983048432    3.69578770434919    5.77176280594924
H         8.30516058328242    4.16098510930138    6.71381282994732
C         7.61940713803456    3.76014829040263    4.73033259624523
C         7.96552828121684    3.12364800323158    3.49622534914506
C         5.39925054274911    6.31174957546689    2.24046638898637
C         5.16533315437868    5.38131204132462    1.20023642484034
H         5.77698596510385    5.42016987393901    0.30349502776446
C         4.03224272541531    4.52377025241016    1.21213402726834
H         3.79856752814783    3.92616218442293    0.33735121921633
C         3.16552858462983    4.51023397799923    2.32179312032789
C         3.45105963279400    5.36335648414652    3.41609778303335
H         2.77071236828960    5.39792885572496    4.25910678624247
C         4.55042989842563    6.24765895807901    3.36512513020636
H         4.70251987922552    6.94444051788536    4.18379552734307
C         6.50853342911479    7.33441496201782    2.15508366286422
H         6.46479776348693    7.95522668490844    3.05727958086741
C         6.31477550399073    8.24434815843864    0.93877353700624
H         7.06601824074071    9.03024240012335    0.94066008701453
H         5.33064408472923    8.70823509514063    0.96074639212887
H         6.41160068410283    7.68444741349863    0.01145025141768
C         7.87882341059237    6.65223725848915    2.12060859939885
H         8.67052565536327    7.39790871015411    2.12157855180418
H         7.98877711502449    6.03776197499095    1.22890655783928
H         8.00358828320518    6.01850320427832    2.99805532751978
C         1.97053492644046    3.60857459963804    2.35875089293626
H         2.20914083793931    2.72719738159744    2.95599120919929
H         1.69494999594774    3.27988678330552    1.35949290673305
H         1.12213201668377    4.10961258120968    2.82040757390307
N         7.03032684333509    3.21088047188328    2.51710400486938
N         4.78374421270492    2.36596774246313    3.77383583523889
N         5.40601624077177    1.58851131565577    4.39515839782921
N         5.88250599632107    0.73918863981932    4.97867077077091
O         6.48048276108278    4.37025857516209    4.80054989399901
Ru        5.35927388651343    4.17313833854797    3.06062559192016

