135
CSD_code = UZEHIR | q = 1 | S = 0 | Stoichiometry = C71H56N5P2Ru(1+) | MND = 6
Ru        2.95926831170189    9.64628004025043    4.65951933979096
H         3.38926423161828   11.08940639424285    4.42706217155248
P         5.17227060679938    9.11746171104185    5.15565567255134
P         0.77428822430316   10.28918279761389    4.16210705449246
N         3.76499724666755    9.21219616854059    1.60474282277532
N         3.22480595890256    8.88559880418677    2.77953937365106
N         2.40867962219363    7.81805272759818    4.94121115921197
N         2.50390539464550    9.69976904406471    6.65976001285270
N         2.38372954120274   10.55946521065061    7.67272135882718
C         5.94147819268415    7.94245628294961    3.97970266041405
C         6.95936368203732    8.36406395887482    3.12682300983589
H         7.35629502218597    9.36486997967351    3.21498340181285
C         7.46768786214327    7.51104438294117    2.16331871865657
H         8.26333327521758    7.85064327958355    1.51650684201480
C         6.96418879196091    6.22862393139237    2.02638612769522
H         7.36469320335825    5.56521650818331    1.27504130518499
C         5.94415984841677    5.80323698659770    2.86006481976530
H         5.54103930487026    4.80592662150137    2.76120471379129
C         5.43170447027313    6.65406614894527    3.82221300807884
H         4.62529097288427    6.30369671353133    4.45005222630428
C         6.48750454754883   10.38012501321877    5.24447790045417
C         6.34884984555442   11.58275639268500    4.56147405778246
H         5.43135399141742   11.77898949286394    4.02420007406536
C         7.37366439063500   12.51275384694139    4.57695214069876
H         7.25944118025495   13.44348905778714    4.04146297538991
C         8.54125774754653   12.24766081258791    5.27277302526011
H         9.34034772519619   12.97322470959883    5.28708488780951
C         8.68674626724211   11.04590325130694    5.94909940766290
H         9.59896351693462   10.83506930615831    6.48669753343679
C         7.66875716909844   10.11102168306239    5.93327995170340
H         7.78866203667174    9.17009782984625    6.45277474907289
C         5.34723280449663    8.35665030939889    6.81430836156473
C         5.46225985051836    6.99636086153418    7.07284612988597
H         5.59445913634090    6.29042127343478    6.26802868291962
C         5.44361056724985    6.52955429423247    8.37727818986356
H         5.53751919078793    5.46962248929767    8.56194491509589
C         5.30647840699646    7.40822113689259    9.43672544053735
H         5.28026872201239    7.03777510460679   10.44998403283400
C         5.22034208982768    8.76979062290386    9.19126664959158
H         5.13410170422170    9.46425004553008   10.01406411848518
C         5.24288355021433    9.23761675985051    7.89288372011423
H         5.19413374042596   10.30174939814792    7.70385888607283
C        -0.36593017773921   10.19810692310137    5.59030348869371
C        -0.89090316445614   11.35489917810126    6.16035217068562
H        -0.68820491767588   12.31699575290812    5.71304193537396
C        -1.67096771034765   11.28215752935630    7.30123576021857
H        -2.08048065657069   12.18718964234240    7.72519891041775
C        -1.92725079137548   10.05978239918633    7.89867991590991
H        -2.53383421895082   10.00751119904507    8.78997956997510
C        -1.40201874051074    8.90432714139136    7.34490797013321
H        -1.59647604661393    7.94519443322650    7.80225214473702
C        -0.62489100017891    8.97226201846412    6.20342712341147
H        -0.21922750787614    8.05971272730493    5.78953096934050
C         0.36898382548225   11.95380963065714    3.53115440636518
C         1.18066795894280   13.03213899182103    3.86756055358720
H         2.07186338194130   12.85476288564685    4.45358854182190
C         0.85029371960193   14.30864203888885    3.44883127863202
H         1.48415764939023   15.14092131598795    3.71671482931923
C        -0.29083302231492   14.51724829065170    2.69164919031532
H        -0.54774060744175   15.51216808916086    2.36098019978365
C        -1.10712384626146   13.44672355333416    2.36149749374553
H        -2.00086239784400   13.60806463056840    1.77771582529511
C        -0.78587716488733   12.16934320960188    2.78273501064014
H        -1.43201252300137   11.33958134037013    2.53192391558115
C        -0.00021109988104    9.25248478967034    2.86479231151946
C         0.51617161418208    9.42150070235217    1.57890399780753
H         1.24690415951217   10.19986932215918    1.40206361179945
C         0.09033837015824    8.62787886906764    0.53305279636256
H         0.50472116379228    8.76866826069500   -0.45454965206666
C        -0.86807151526319    7.65127612985116    0.75507994343802
H        -1.19940286890770    7.02282570005311   -0.05727948370817
C        -1.41151815297749    7.49899218890477    2.01826048525683
H        -2.17830913676825    6.75844045278671    2.19103786003620
C        -0.98308741762307    8.29236728832633    3.07031240040026
H        -1.44156977604023    8.17151907020714    4.03973049954588
C         2.47867249862306   11.95525377649268    7.48245757871318
C         1.44803456465974   12.77262977765653    7.93483626873740
H         0.59799111183239   12.33549121865331    8.43540200995007
C         1.52143766693379   14.13830464823495    7.73541870485117
H         0.72028410056622   14.77121992642056    8.08449259041813
C         2.61415918417272   14.69194762163093    7.08765937867812
H         2.66516721125716   15.75869614029464    6.93325898333978
C         3.64198063883899   13.87608305580484    6.64658199572410
H         4.50061228471803   14.30029646594308    6.14892996362496
C         3.58161427001625   12.50746838184448    6.84427062453890
H         4.38407020612256   11.87412862961186    6.49790651162027
C         1.83756470323505   10.56609335802915   10.10539801705580
C         0.80308648910989   10.16437383236733   10.94830330171412
H         0.11243702362092    9.40515384830055   10.61242553417452
C         0.65185758567709   10.74622119878885   12.19269848008333
H        -0.15494108243059   10.43234919921669   12.83742807211976
C         1.53315669249151   11.72916622013041   12.61246446707604
H         1.41495980211223   12.18186369103782   13.58476358179163
C         2.56957058458886   12.12659095150656   11.78336305689225
H         3.26333148995805   12.88591194865236   12.11091505276775
C         2.72447892629017   11.55137452035235   10.53650905082547
H         3.54301867017509   11.85545124017411    9.90045166042249
C         1.99714983717027    9.91863471573754    8.81133813470032
C         1.86489443439115    8.58099724231399    8.49588673411755
H         1.59897652807098    7.78584858004452    9.16040063459641
C         2.18638592741313    8.48183758615936    7.13608814052258
C         2.12240503847060    7.39824423263713    6.18290348519612
C         1.73628483129077    6.08233453899024    6.42052768126454
H         1.53061124581539    5.75182517497000    7.42532096977534
C         1.60993921189733    5.22248842332038    5.33749253463723
H         1.29318406062050    4.20327746116652    5.49305771679859
C         1.89415305612817    5.67223070554283    4.05480568583833
H         1.80232300295332    5.02269093219765    3.19996713006639
C         2.32033642881090    6.98680448468374    3.89091790832343
C         2.81073965641296    7.60902518977079    2.68322157822531
C         3.09734884203233    7.12120438953435    1.40122958052810
H         2.87107184973323    6.15191500269184    1.00897023018300
C         3.70950076691776    8.16431851660421    0.73560155978907
C         4.18213436058113    8.21378119822703   -0.64087092305761
C         4.84136626415517    7.10812237735284   -1.17472879237433
H         5.01685688466516    6.24554799017445   -0.54905793997743
C         5.28307956224734    7.12547700802924   -2.48404985558454
H         5.79735319644675    6.26692821064810   -2.88848321880660
C         5.06675511849116    8.24140553034419   -3.27599401461676
H         5.41183972644871    8.25373769178556   -4.29827386874437
C         4.40184310659356    9.33941210464149   -2.75486580819904
H         4.22304801303187   10.20651822378353   -3.37229169089230
C         3.96009643827438    9.33000131010719   -1.44538130418535
H         3.42874031029359   10.18332265283690   -1.04964262946533
C         4.41403801605504   10.44950227265229    1.40179144779137
C         5.71375676600022   10.46493697363955    0.90733837078116
H         6.20868069672678    9.53509621646953    0.67366796678899
C         6.35841202434001   11.67332498457391    0.72063945566818
H         7.36771377502733   11.68534596504380    0.33924116361680
C         5.71481923294395   12.86237920029947    1.02413884184080
H         6.22314002944006   13.80271344901576    0.87628460708090
C         4.41794275630905   12.84296619779930    1.50858829680447
H         3.90680275176579   13.76510600976856    1.73918724265260
C         3.76090458026286   11.63950820994128    1.69639108478379
H         2.74904772242823   11.62829231586493    2.07315937445896

