115
CSD_code = UZELUH | q = 0 | S = 0 | Stoichiometry = C52H58N4Zn | MND = 4
Zn        3.88497684036085    3.19475686832504    4.89871024225081
N         2.13803016965694    2.31863044675159    5.20694360763788
N         3.41920260642699    3.68651282859024    3.06408799624522
N         4.28452127654597    4.19229748999548    6.52680409536677
N         5.63189562593987    2.27899530760291    4.82858868434265
C         1.08413300395033    2.78251056554918    4.62746546326569
H         0.10760766171646    2.41817571509285    4.96933247531805
C         1.03706775679038    3.69358075122702    3.54395108724828
C        -0.24122742405875    4.15832312676092    3.16746703165486
H        -1.08756995662691    3.85438286673841    3.76914425872005
C        -0.43700214013119    4.97597878569142    2.09003152855391
H        -1.42360386549904    5.32978436592679    1.83425163166091
C         0.66788558405350    5.34241794925135    1.31179004022267
H         0.52816974300003    5.98592907304914    0.45446648145567
C         1.91859004233032    4.89024117031160    1.62332682675228
H         2.76142573286137    5.17742918372730    1.01114621639763
C         2.17169010015088    4.07583028458834    2.76126305340046
C         4.35858639118879    3.67920338497127    2.00976162021547
C         4.23583334395609    2.71007449168105    0.99456546827379
C         3.14922756039182    1.65601243185265    1.02840979367971
H         2.68253101520389    1.67382584298022    2.01868588981950
C         3.70673868819922    0.24774950045689    0.79646208092405
H         4.53838125282404    0.03296584548679    1.46402630124410
H         4.05143840662192    0.12535736929706   -0.22724402774390
H         2.92465496696724   -0.48742236536939    0.97537390438639
C         2.07313498100227    1.95204247373463   -0.02030471721506
H         1.61208042176965    2.91903034619166    0.16253167389917
H         1.29763712082754    1.18916225740429    0.01198811620738
H         2.50790481139988    1.95992223272867   -1.01763634334499
C         5.13433224230056    2.72343425497539   -0.06160937409659
H         5.03585997154389    1.99840438114303   -0.85504868084485
C         6.15081963061550    3.65691742552783   -0.12413759497310
H         6.83192434963541    3.66415585351460   -0.96248453933926
C         6.29572275069182    4.57521876392852    0.89799978583448
H         7.09757529456795    5.29547066062159    0.84883550051695
C         5.41937357832292    4.59671362407704    1.97491925099417
C         5.58419953136702    5.63927082765902    3.05539376269121
H         5.08285603382218    5.27764909102681    3.96130581341400
C         7.05023342693820    5.89411122650445    3.40859692866400
H         7.58617835397679    4.95527445987026    3.52838340335678
H         7.11330976389353    6.44272429090628    4.34607059443524
H         7.54539286950703    6.48466233452153    2.64101507192634
C         4.91314364159856    6.94552068944608    2.62116630641371
H         3.83976648698370    6.80879697991325    2.51303970203170
H         5.31774271208413    7.27668962106046    1.66596812210419
H         5.09305224725482    7.72229939966381    3.36061970874983
C         1.98897428661412    1.29044065486397    6.20601025287135
H         0.92804029069057    1.03042774484623    6.34818120691018
H         2.38540801097460    1.67262631028119    7.14945115832695
C         2.76137518526315    0.06381679541443    5.78863219478211
C         2.49709416966053   -0.53187005390007    4.56021450968228
H         1.73977737750634   -0.10796268939925    3.91621499080113
C         3.19327241393441   -1.65788902998533    4.16057837477249
H         2.98061345415691   -2.11305589468660    3.20481510130573
C         4.16030178607626   -2.20663815654487    4.98683162300462
H         4.70207222091453   -3.08772618247126    4.67601507780597
C         4.42969194315752   -1.61889109552882    6.21119211997896
H         5.18317311458091   -2.04154255495258    6.86030717639504
C         3.73732376229318   -0.48646573667417    6.60784721119793
H         3.95581689039250   -0.02998265438505    7.56078509351646
C         5.80528739669218    1.08437837743248    4.01621043317561
H         5.13064512770728    1.19827922192660    3.16360738548917
H         5.45202167232611    0.23199700806105    4.60603535525436
C         7.19920860515336    0.81270389808634    3.51783792216593
C         7.74612006352872    1.60810568371748    2.51680448983258
H         7.16255590781751    2.41937068916263    2.10887517785404
C         9.02357667443948    1.36364989475356    2.04743749592497
H         9.43629167627998    1.98831183002888    1.26905509800612
C         9.76903692333576    0.31958235490035    2.57024589308158
H        10.76589348246370    0.12690175446246    2.20189616129819
C         9.23134643248271   -0.47752029390290    3.56604227992506
H         9.80842134134852   -1.29328001489473    3.97658996242664
C         7.95387198758531   -0.23010902269627    4.03916767123289
H         7.53525245460053   -0.85265579253157    4.81773179577019
C         6.66259999757213    2.84163882390583    5.36227799083340
H         7.64673161867549    2.40728825932186    5.16561829817064
C         6.68334927757675    3.97899730745594    6.21015755648601
C         7.96317919960871    4.48144194646561    6.52984376296046
H         8.82090555970466    3.99772162541018    6.08184082027625
C         8.14924791171691    5.55157920191295    7.35970069838463
H         9.13958228301981    5.92407324434690    7.57084319310824
C         7.02845963434863    6.15516756177895    7.94186454670392
H         7.15788390222236    6.99961512985129    8.60422202390510
C         5.77314950270882    5.68168868068324    7.68487159817918
H         4.91787846202790    6.15212001970229    8.14799971582609
C         5.53382063627810    4.59864072078331    6.79315955336413
C         3.26537149572651    4.57056882151845    7.43164042825190
C         2.30924843930317    5.53522559149259    7.07527431019578
C         2.39194271937868    6.25294774444427    5.74789738445273
H         2.85346638110768    5.57321652312955    5.02189346365624
C         3.28261882987586    7.49273438678042    5.88307116090381
H         4.31263493775393    7.21166874856959    6.08652779940791
H         2.92705914270715    8.12158581717673    6.69796577655127
H         3.25555768232370    8.07247989162153    4.96343760881053
C         1.02540149662461    6.66362880787373    5.19902715096435
H         0.30988785192223    5.85055599238924    5.28874525287098
H         1.11523773905398    6.91924242282541    4.14518806468033
H         0.63672459626460    7.53459172915303    5.72218385847756
C         1.31830016084622    5.87346909612595    7.98550307722519
H         0.59058676621936    6.62685232730417    7.72879578642984
C         1.25727976961763    5.27749743341173    9.22978858731766
H         0.48754130908601    5.56253197767664    9.93209494615430
C         2.18951382847454    4.31852498707219    9.57214393566109
H         2.13688729732813    3.85905063461416   10.54724479103964
C         3.19349461942971    3.94433294486565    8.69081399727443
C         4.18336628438889    2.87809930251899    9.11341689322414
H         4.69655830775255    2.51260171732423    8.21651235144978
C         5.23213381399604    3.45450699874083   10.07001115298182
H         5.81541298161656    4.23197771460390    9.58557166069200
H         5.91056943350031    2.66892291675213   10.39732260263888
H         4.74760986238978    3.88094069749819   10.94623328454662
C         3.49768324233723    1.69159886077726    9.80245681347365
H         2.61492604635978    1.36236197639822    9.25798428765594
H         3.19135565545475    1.95301551758536   10.81247656035427
H         4.19255206876243    0.85667837776908    9.87803979893134

