51
CSD_code = UZENET | q = 0 | S = 0 | Stoichiometry = C16H24CdI2N4O2S2 | MND = 4
Cd        3.95305842451025    4.05553354946609    2.65330619005065
I         4.65907072799708    4.80411723121680    0.14566136127702
I         1.90858090875060    4.89725631060551    4.23791915546680
S         5.97445772240933    3.06057593002332    4.26021353249200
C         2.41482283969713    0.58724858058756    9.40209510413128
H         2.21075645112522    0.01985374178964   10.30648444906369
H         1.54045843574590    0.55916548145661    8.75791677349378
H         2.61505425415516    1.62223669494443    9.67148584200354
C         3.61980020630330   -0.01605426443191    8.71906509818952
O         4.19352650180685   -0.97154076880287    9.20544790747755
C         4.06824536752413    0.61732498852572    7.47326555797058
C         5.24904023083135    0.27670334516598    6.89831303110331
N         5.68014908263074    0.96655059085845    5.78018429916506
H         6.55902709099125    0.71101664981896    5.34984967744488
C         5.13640247551024    2.14606169708114    5.38584319205027
N         4.02822818257774    2.54175445974771    5.99351372844595
H         3.58323924742343    3.40264710290740    5.68220879999507
C         3.19480228022335    1.63954532352601    6.77621414815263
H         2.66402405455334    2.26288270557718    7.50065183567993
C         2.17917573186188    0.95180062050550    5.85569723615192
H         1.50843798636807    1.68749485291061    5.41845967740707
H         1.59156264006201    0.22703562888527    6.41125175785604
H         2.69748231760654    0.43433629205762    5.05092397897040
C         6.17589759657314   -0.77885039249273    7.38597355740225
H         6.40318484212187   -0.62351971390418    8.43879548946347
H         7.09821418654533   -0.78772156492750    6.80985211483779
H         5.69711484553317   -1.75395078705057    7.32249603842660
S         3.21664602085053    1.19943787142242    2.30866912436012
C         0.87520251385462   -1.49283796721026   -3.45911181307999
H         0.42820231440657   -1.24502911867286   -4.41907991585029
H         0.12213606156817   -1.44732818453939   -2.68001969149490
H         1.26178180122715   -2.50725453631376   -3.52705160943358
C         2.00380797418473   -0.52429686840806   -3.20681596574904
O         2.49625450324277    0.09966639772735   -4.12413464175222
C         2.46690605122009   -0.28604750834567   -1.82748415934829
C         2.29983062587017   -1.06576433872140   -0.73779329993783
N         2.74400701327099   -0.59558680528158    0.49023855829211
H         2.61776631881021   -1.17127907457359    1.31112010279645
C         3.05436110935130    0.70932638529425    0.72116860894548
N         3.16382588732735    1.50428085894947   -0.32933912088590
H         3.45273974701294    2.47111108297289   -0.19030564285481
C         3.28183210478863    0.98832942972676   -1.68431726496457
H         2.88468624373832    1.74767098142744   -2.36518011696172
C         4.75284788092138    0.74544826121877   -2.03081730007745
H         5.31926975223594    1.66525327326748   -1.90509082537638
H         4.82652304528321    0.42883920454209   -3.06629719813951
H         5.17577046372719   -0.02465242967387   -1.38850644733644
C         1.69487047988739   -2.42974592298391   -0.66438531980675
H         0.61064481099806   -2.36843794503023   -0.57718458460789
H         2.07122063691412   -2.95435631378105    0.21211710168362
H         1.93705200788784   -3.01625101908170   -1.54368811256556

