107
CSD_code = UZEQUN | q = 0 | S = 0 | Stoichiometry = C42H59N5Zr | MND = 5
C        11.28464259236132   14.03004448208320   16.95998713083832
C        12.08741545305564   13.89221380284913   18.09274066636488
C        13.47254976679996   13.69921023692936   17.66428360823885
C        14.67732231995290   13.42697156378396   18.26679942975726
H        14.76770796179323   13.30011464692580   19.33649465060331
C        15.82384377719469   13.29151420099168   17.45615464385527
H        16.76650418983703   13.08680902937919   17.94591440830816
C        15.79283000970524   13.40755991928811   16.08997960729128
H        16.69987611551324   13.30271465377673   15.51170550603996
C        14.33164138410561   13.76818488246139   14.03517649003123
H        15.15985986230568   13.68344601446453   13.34634132461498
C        13.05859919135545   13.98122096888373   13.57030747588094
H        12.89629019370960   14.06320248545643   12.50397207139464
C        11.93574769512559   14.08493566690258   14.41677950812330
H        10.95260170898050   14.21944060098806   13.98850015725568
C        12.12375057144909   13.98530173606676   15.77655365523815
C        13.45098994975422   13.78473826165852   16.24669864662851
C        14.56344680014870   13.65193828621732   15.42986467602873
C         9.00510873739206   13.71581589006640   16.18906830895562
C         9.00422300783083   12.34094696212678   15.84915439355103
C         8.06530992489631   11.87198423116731   14.94197335374518
H         8.07481751318491   10.82868600080886   14.66257092513852
C         7.10734503991312   12.70124986322200   14.39254598458041
H         6.38641036310858   12.31100433208713   13.68932747643121
C         7.07746504281374   14.03811987274834   14.75273948259226
H         6.32635646731380   14.67994514193943   14.31828810948667
C         8.00704582392761   14.55665607239125   15.63484184166650
C         8.05989113010012   16.03844468625904   15.94860041422296
H         8.42581152923633   16.14481178090467   16.98968528986126
C         6.71385927488790   16.75389944548021   15.82050574688561
H         6.78887762341362   17.75808193244725   16.23488386134014
H         5.93094659089169   16.22186315249969   16.35550748353506
H         6.41977167156414   16.84861880097916   14.77714538832672
C         9.07737693176499   16.68828591856365   15.00012631147275
H         8.78881558207763   16.50794997058555   13.96521539275840
H        10.06692252479919   16.26723046449190   15.16424250089480
H         9.12095724898832   17.76491551093311   15.15816525608709
C         9.96030529203103   11.35054037430037   16.48380054777645
H        10.50067027504488   11.85934734974665   17.29019149238557
C        10.97914146761252   10.82418676106899   15.46876612899041
H        10.47434318604330   10.29310414851928   14.66411882478551
H        11.67189900614382   10.13867461498866   15.95363157731665
H        11.55164146632313   11.63848579387714   15.03565518848684
C         9.21305989931657   10.16058704681360   17.09856675011795
H         8.77671822886195    9.53099261100122   16.32680074413057
H         8.41620862699101   10.49323919750099   17.75813702493737
H         9.90602799801623    9.54953965070268   17.67406533822017
C        12.31980430802352   13.68328637330181   20.48372332663332
C        12.31704258460176   12.39811355252025   21.06936908717749
C        12.99939156339931   12.18678760228702   22.25610101860016
H        13.01136102205863   11.20452432575030   22.70310106121877
C        13.67491931155256   13.22087663197618   22.87992893332373
H        14.19144153179369   13.04596430447517   23.81219492541950
C        13.71215166458757   14.47061406253768   22.29003247057615
H        14.26854089001806   15.26344105913341   22.76915471737030
C        13.06519367584600   14.71740770847057   21.08747181153523
C        13.19764960007801   16.06784339207700   20.41543410383232
H        12.73701040200934   15.99869817477723   19.42349082244834
C        14.67251395398489   16.43492642713888   20.22184746131117
H        15.16610913665284   16.60201950165890   21.17646772780006
H        14.75334174476430   17.34583415885880   19.63195095876603
H        15.19712568647987   15.64290310672092   19.69352708496241
C        12.47193915290366   17.17402426712631   21.19444003791093
H        11.40614311313574   17.15264288568892   20.96433922023161
H        12.85772424520829   18.14795225626330   20.89868410615244
H        12.62259599222435   17.06601950502000   22.26769185753216
C        11.61160676589134   11.27068176685239   20.34694923187987
H        10.82927497827946   11.72555938654374   19.71800384184187
C        10.95605963406678   10.25299768835181   21.28168261005796
H        10.31549858357907    9.58764495368580   20.70630733401187
H        10.34675924912920   10.74069156379390   22.04044681592026
H        11.70486669651542    9.64251398041689   21.78100526226766
C        12.60738070945467   10.56162277256887   19.42254314558637
H        13.44013241499959   10.16295165895230   19.99930214034074
H        13.00055411390879   11.25269437185161   18.68143573473900
H        12.12097933340728    9.73834613720886   18.90353990186352
C         6.60359782899817   14.85175160813563   18.99677933903970
H         6.32267926579867   14.58158735290082   17.95980809088679
H         6.70298077122081   15.93972593648336   19.06424082086193
H         5.75452185044394   14.54814335509484   19.64054517723494
C         7.68333181132171   12.77306701022493   19.22484152788444
H         6.88217766606436   12.36007921996345   19.87069207683910
H         8.62118772434924   12.26334613178407   19.47875595399061
H         7.40537189053997   12.52114169066506   18.18157365394553
C         8.95793175494342   17.99653700110412   19.09183608886724
H         9.39700977319302   18.86091911041336   19.62880588326792
H         8.12400681914506   17.61434052462341   19.68866432213733
H         8.54629367023061   18.40054816232885   18.14521524117222
C        10.95733110530240   17.46692244468983   17.95101302239529
H        10.50686908923289   17.96300116586754   17.07272995966697
H        11.59567039836820   16.65202139336583   17.58743781577197
H        11.60007552151736   18.22339546226729   18.44007929066805
C         8.88505673507223   16.12077062774513   22.07038167533458
H         7.85437337048688   15.97377837561004   21.73977547430357
H         9.23782265043943   17.09038150351217   21.72193345811462
H         8.90070207071051   16.11858176781440   23.17111861289080
C         9.32295906251679   13.77372814170091   22.11611608848739
H         9.36067015938764   13.81572603304450   23.21564779851722
H         9.99781521041667   12.98998116366530   21.77600878667867
H         8.30344686630843   13.53630430039097   21.80839071375439
N         9.91856297142917   14.28473005388455   17.06453572814235
N        11.52926269060561   13.91349603231293   19.35388905191561
N         7.82489734086405   14.20190412852689   19.41662299457771
N         9.94502277125937   16.96346334051252   18.86259159031943
N         9.71118303138385   15.04998044730743   21.51489411326139
H        10.68502756905523   15.22538423202878   21.78174903315466
Zr        9.69360148312662   14.92940968873447   19.00248506942416

