111
CSD_code = UZERUO | q = 0 | S = 0 | Stoichiometry = C45H59N3PSi2Y | MND = 5
Y         9.24628896286013   16.55959552105601    5.97661070773029
P         8.17508824966830   13.59047966595059    7.54375089034237
Si        7.26136898691120   16.22942182065076    3.02469423935058
Si       12.47290151551746   18.14701809123305    5.71962021843957
N         8.19169260339099   18.22804175270264    7.60497460504635
N         7.25235976378093   16.23041704591671    7.56197675020516
N         9.18391110579044   14.08215481733583    6.39683608850995
C         7.24780453301537   17.46945672198883    8.09241128570120
C         6.33592815462165   17.86999113231413    9.27014503707240
C         5.44637553369310   19.06058844096460    8.89283561791860
H         4.78555326239909   19.29370715318391    9.72609484504147
H         4.82644488338130   18.83298219082307    8.02785272103376
H         6.04480396722060   19.94165875501802    8.67701191686208
C         7.21196031004889   18.27980329219267   10.46400475915297
H         6.57614442617911   18.48126634002228   11.32470589234746
H         7.77554018336053   19.18030791592341   10.24844683470621
H         7.89844085873294   17.47791638906133   10.72674754945847
C         5.44606092493395   16.72118994362715    9.76059652572179
H         5.02106986044350   16.98932229897088   10.72682753964482
H         6.02684487250255   15.81169680805361    9.88774937385294
H         4.62347436807424   16.51529490241061    9.08346671848018
C         8.53088089886458   19.55246640752968    7.89065180830662
C         9.53738188901411   19.87908396679174    8.81165492715706
C         9.87968089798821   21.21122761393161    8.99901188981009
H        10.64409328259856   21.45471237091938    9.72351903427737
C         9.27435121255999   22.21595896924988    8.26958956790740
H         9.54400434296135   23.24811410441566    8.43464640631666
C         8.35248069795051   21.88257182246403    7.29278562587556
H         7.91916673923836   22.65705040836468    6.67611957693994
C         7.98615205643417   20.56479928097297    7.07847389058448
C        10.29775702702102   18.81952726006367    9.55749351584835
H        10.24103322351396   18.97965751194420   10.63415790152445
H        11.34818994689140   18.86252217086717    9.26776914249593
H         9.91054956686016   17.82991286814562    9.32478695989390
C         7.07610099226512   20.20170024486088    5.94273377713287
H         6.83206169701114   21.08265166553277    5.35374877420900
H         6.14826455049495   19.75326033829957    6.29273264568140
H         7.57168899581154   19.46849513263359    5.29795355745253
C         6.20657896173440   15.43281043507397    7.24078923458099
C         4.92310686886345   15.86221467554818    6.85602636063764
H         4.69938234687332   16.91907939492250    6.84781467353774
C         3.97195350206509   14.95423540050855    6.45067920735374
H         2.99447121670775   15.30818055802505    6.15441151669377
C         4.24768890176530   13.59204230964747    6.41233694666204
H         3.48763559119322   12.89146628216954    6.10263823003299
C         5.50892503786203   13.14392943588366    6.75363102345416
H         5.74142494403551   12.08896568245396    6.70967003324962
C         6.48105965868523   14.05100588241457    7.15073187576040
C         8.16729381610237   11.77084896182632    7.63971204757915
C         8.13280855525456   11.11323983455802    6.41337700059609
H         8.10399919871467   11.69886500742922    5.50407520663958
C         8.14353683092842    9.73239264852867    6.36526208815172
H         8.11599794592983    9.22516959949575    5.41237429377870
C         8.19381374285314    9.00153021198907    7.54187782466594
H         8.20448907771283    7.92232017523365    7.50724633438346
C         8.23770363673955    9.65401234615888    8.76252058581776
H         8.28423531246687    9.08373729137383    9.67872962116951
C         8.22679919827080   11.03738105688221    8.81592229127606
H         8.27405170431787   11.54126834102916    9.77092524666448
C         8.51731231816789   14.18904960321641    9.23285252536175
C         7.60201619536746   13.96303891304259   10.25584122556483
H         6.68228824332487   13.43438458149719   10.03854959755749
C         7.87281661795236   14.41675596253324   11.53473321337949
H         7.16247723340715   14.24381266274411   12.33002062075312
C         9.05141584153657   15.09935297476184   11.79273805980716
H         9.25845284315336   15.45527295427895   12.79111368367425
C         9.96185568067072   15.32954463277543   10.77285980042157
H        10.87910183451211   15.86198444889630   10.97734666348504
C         9.69632127825178   14.87631858027573    9.49234897786298
H        10.40191338017149   15.04585718799326    8.68630693430164
C        10.39465546190499   13.42686544556388    6.15166661779819
C        10.98175673984463   13.59475061502061    4.89144385261093
H        10.46935563259065   14.20136917086717    4.15286571746534
C        12.18472004692216   12.98781063687785    4.59234278680975
H        12.62379277808751   13.13001667551000    3.61570031646940
C        12.82795055038613   12.19591910196174    5.53125818878841
H        13.76714387141350   11.72064540585738    5.29267623612868
C        12.25575685619623   12.02300139457369    6.77950733513314
H        12.74847616975328   11.41263910700702    7.52272801675217
C        11.05514892932534   12.63258190657543    7.08921429149962
H        10.62212869892889   12.51161350568478    8.07602142687240
C         8.90192529959331   16.91522035169588    3.64225746790905
H         8.95887840439494   17.98466565972386    3.39761084106220
H         9.71955545681227   16.44553013661201    3.08055465000779
C         5.84641162270033   17.21403059854757    3.85933616107475
H         6.05599867985744   17.35629027243397    4.91668699449654
H         4.89625749404148   16.69603962770356    3.77820512208467
H         5.72618677854575   18.19427907424394    3.40857475477104
C         7.10020106940158   14.38204032987176    3.50724407893673
H         7.36483110284664   14.22749642987225    4.55197466634301
H         7.75272431215122   13.75867865688724    2.90291950321806
H         6.08505054935527   14.02160086660282    3.37009190086284
C         6.96982691570158   16.33405652944183    1.13067435167962
H         7.02202793107785   17.36093338044196    0.78252766692204
H         5.99677551587608   15.94200939296968    0.85065918387024
H         7.71980984552890   15.76801855078772    0.58715865700788
C        11.52683145974134   16.79030965554697    6.62042303620517
H        11.57549966035987   16.98352255861595    7.69792930276027
H        12.04433822596357   15.83504902848886    6.45810365939194
C        11.37706958019621   19.71404063862149    5.56880477166104
H        10.42070383028603   19.47977708082065    5.10184670407797
H        11.85631906473876   20.48264892818277    4.97095778115830
H        11.16663344964209   20.14671752197690    6.54165991935646
C        14.10696339094104   18.70259925459094    6.56314596063053
H        13.91614977538267   19.13040196554887    7.54268011678488
H        14.62711524848408   19.45337025991543    5.97649463446195
H        14.78415571781217   17.86506189155983    6.69845569666082
C        12.92122675868342   17.53933636279273    3.96030825187293
H        12.03179444384102   17.23191600162635    3.41863031296180
H        13.59235645200816   16.68750275181310    4.00163421991501
H        13.41087336865971   18.31505210630029    3.38057278252370

