88
CSD_code = UZEVEC | q = 0 | S = 0 | Stoichiometry = C45H34Cl2N4P2Pd | MND = 4
Pd        5.25590501386707   18.30579741250283   13.52996509314352
Cl        4.75374307929750   19.82804063817114   15.11652039051061
P         5.47525016596831   16.51536976700103   12.18539702480938
N         5.25692314207997   15.44205136358050   13.52979436598089
N         5.25580231443594    6.97328521009585   13.53014638229281
N         5.86694044496311    7.55604630579450   10.05395667357965
C         5.25708728332894   14.04173148638496   13.52956694552200
C         5.49636418925968    9.04547553996172   12.36480395157687
H         5.71609246979684    9.52503852990248   11.42539219544018
C         4.85704605536312   11.95462428691766   12.40231492922855
H         4.51839795205457   11.42783007408700   11.52335000225884
C         5.68492026884518    6.87132660333342   11.18201186127700
C         6.04776343448285    6.88625540149801    8.93302732263670
H         6.19013012744696    7.49377652716134    8.04788951473305
C         5.47180205721442    7.65297061451381   12.40904843738254
C         5.25680086522773   11.23805106289249   13.52956977581139
C         3.95622794894441   16.44009880000853   11.17577158391722
C         4.85315063130802   13.33348476411078   12.40076372184806
H         4.52208734910567   13.87616092956898   11.52927161804362
C         5.25638897437702    9.77048079840463   13.52969716706730
C         6.80395794727175   15.83445408726087   11.17166576241417
C         6.05807631919956    5.50082556994249    8.85881437723865
H         6.20708446164169    5.00111576183654    7.91431245942835
C         2.89016743408467   17.21138024985773   11.64170628873174
H         3.00353211565316   17.81263821166712   12.55778497819504
C         5.87093111405303    4.78392648688731   10.03126294256222
H         5.87200819285530    3.70318832024296   10.02091939933327
C         5.68187234402257    5.47627771994258   11.21276906499012
H         5.53117162671676    4.97333517332192   12.15355055233745
C         3.82752804657449   15.73453210925997    9.98310183451171
H         4.66138776367771   15.16384172965425    9.59597222157621
C         7.00888942358622   16.46603136951555    9.94435836289358
H         6.34690735590054   17.26990670755376    9.64871974918029
C         7.69052468371477   14.85591084230618   11.60816875135431
H         7.56541577204882   14.39793037312973   12.57867353910542
C         8.05867967133564   16.07642995908946    9.13598054147841
H         8.21577905475524   16.56213726213345    8.18466459133747
C         8.73583878453541   14.46837937556012   10.78851552077593
H         9.41643140057540   13.69833479127535   11.12039492904347
C         1.57201917813010   16.52771083795182    9.75974113805644
H         0.64638579224562   16.56262850875471    9.20509175872281
C         1.70032604619728   17.24636878462790   10.93834101837697
H         0.87838129072123   17.84569706855052   11.29975773552560
C         8.91600362517124   15.06890916041696    9.55312523369721
H         9.73516510943494   14.76223450323052    8.92010250286592
C         2.63564287979453   15.77952314551328    9.28176383011890
H         2.54003435274212   15.23354158199336    8.35479406142039
P         5.03798727079452   16.51465559936211   14.87463561883658
N         4.64528021745120    7.55766574004388   17.00615356918961
C         5.01603235589093    9.04594357785845   14.69479633995747
H         4.79644918611292    9.52588608505587   15.63404919201448
C         5.65697331264933   11.95453127269895   14.65674586811270
H         5.99558588427682   11.42768440483084   15.53569543773040
C         4.82670933745949    6.87233192026619   15.87837193128053
C         4.46433943584960    6.88852017485256   18.12744062432885
H         4.32252602654628    7.49655463023204   19.01231117987714
C         5.04004068768350    7.65341077186092   14.65100817279147
C         6.55731302283828   16.44013665399957   15.88395494882701
C         5.66114630939885   13.33337614167616   14.65826075538495
H         5.99244410452671   13.87607612069988   15.52964799266945
C         3.70987798262380   15.83207926784866   15.88809409496248
C         4.45335729271282    5.50313207588656   18.20232347979858
H         4.30429560823433    5.00395845231686   19.14710325825829
C         7.62248370189316   17.21282484330241   15.41827871693561
H         7.50833838330728   17.81457665245856   14.50261641734273
C         4.63987528009802    4.78559232700609   17.03017288170204
H         4.63824296508567    3.70486233438304   17.04104896940513
C         4.82902074623588    5.47727402541958   15.84827918532041
H         4.97927028734396    4.97375101068895   14.90773481181609
C         6.68710275458019   15.73386578025899   17.07607688228615
H         5.85393418619948   15.16213891643645   17.46315760666003
C         3.50504448213725   16.46207882994616   17.11622809933908
H         4.16686459304393   17.26578641258990   17.41266813045697
C         2.82342011461547   14.85389524436952   15.45057884554575
H         2.94835808439348   14.39711895749909   14.47950087793144
C         2.45562826890664   16.07112155550530   17.92439412059942
H         2.29875048398102   16.55536536310773   18.87651019128574
C         1.77837033335934   14.46509652070195   16.26996347863873
H         1.09794539261357   13.69524981715756   15.93728967486961
C         8.94190066302946   16.52906382494318   17.29930604811574
H         9.86771383138225   16.56451189979822   17.85362912567291
C         8.81248837633549   17.24847811050677   16.12128262723794
H         9.63376224820337   17.84881266667720   15.76003200243632
C         1.59847510527731   15.06388037784995   17.50620768515209
H         0.77962690877696   14.75611545885479   18.13916977572358
C         7.87914806133590   15.77955712493037   17.77709584196047
H         7.97559007812226   15.23295184000552   18.70360863365416
Cl        5.75712108066518   19.82910140870808   11.94506480352268

