130
CSD_code = UZEVAY | q = 1 | S = 0 | Stoichiometry = C68H54N4P3Ru(1+) | MND = 8
Ru       -2.01236486133330    4.10886261980433    7.55634594361667
P        -0.17184728241736    5.47226583636485    7.20925785587601
P        -2.64769982440761    5.93573790538501    6.33217297538670
P        -2.51894777377375    4.76816508496411    9.70851625877171
N        -1.04017142153720    6.54523534283465    6.16890176837962
N         3.86264886422802   13.28958611457134    3.94156030784647
N         1.92039703239227   12.58661850400664    1.02069250275102
N        -0.44052574159451   11.05560791536882   -1.18806421698328
C        -3.36452834415233    2.30857721121652    7.39341384658000
H        -4.38574068791252    2.14755745336210    7.70890092646550
C        -2.20407524824906    1.91309214641190    8.12914056853848
H        -2.21822502777330    1.43962711886385    9.10304526283199
C        -1.08317939207654    2.05473233636006    7.28904142783005
H        -0.08180568831003    1.70646368718348    7.49980124810981
C        -1.53250089204262    2.54928946979254    6.03025331282695
H        -0.93326546956801    2.59391853252011    5.13102909547580
C        -2.94467280875444    2.66401970359110    6.09311515101308
H        -3.59694796519237    2.89058825876059    5.25997621123159
C         0.74680592978963    6.57860312106754    8.34524507024856
C         0.41310206106599    7.92880046352114    8.44903020511081
H        -0.32960516096068    8.36051639692409    7.79378214271462
C         1.05339927700751    8.73750220417757    9.36885068993550
H         0.79148619967689    9.78280840553799    9.43239579544015
C         2.02882329621359    8.21328966666466   10.20053052417676
H         2.52428604299395    8.84604536841678   10.92043779784446
C         2.37302492154131    6.87677544670215   10.09555737345931
H         3.14083406567379    6.46257884577693   10.73091982726646
C         1.73610829837626    6.06324316658126    9.17657342265322
H         2.02081819225024    5.02647545156730    9.10736322461534
C         1.11724232715471    4.64103757618170    6.22105319037877
C         1.84338342648431    3.63402737023497    6.85576924659446
H         1.65108274254509    3.41437238415771    7.89716398025247
C         2.78844220599592    2.90363378848404    6.16138880924999
H         3.35012925361404    2.13139810913086    6.66560024260253
C         3.00539719006866    3.15452991706987    4.81585569942466
H         3.73975421096861    2.58228273563069    4.27045402524098
C         2.26839211078819    4.13344773084658    4.17170269088738
H         2.42511192192026    4.32609739541071    3.12100040855999
C         1.32582677248166    4.87358614427246    4.86483567025118
H         0.76783106848570    5.63560495664224    4.34209959146405
C        -3.74405360403571    7.27736597906553    6.88146792490460
C        -4.95765324082859    6.83119857659677    7.40224337795456
H        -5.13083129388062    5.76201433085796    7.46423174170082
C        -5.90946433628000    7.73313854035697    7.83291245623189
H        -6.84889777905678    7.38320437430376    8.23335875909753
C        -5.65031866535263    9.09253550759138    7.74919916362625
H        -6.39253486053315    9.80271865756431    8.07954595721523
C        -4.43879520435513    9.53980826398822    7.25007954651936
H        -4.23740153573478   10.59892344537190    7.19352129221243
C        -3.47880935303686    8.63941737211989    6.82046149318168
H        -2.53359704763971    9.00189252152627    6.44594648251582
C        -3.22513742236985    5.60986270868849    4.63418228874421
C        -4.53625297671213    5.85602117255806    4.23986067504697
H        -5.23646298515255    6.30372679727294    4.93057844994651
C        -4.93776963545316    5.53789754733181    2.95384097260598
H        -5.95489400445854    5.73321580471875    2.64967716964262
C        -4.04206357926708    4.97460077557341    2.05999259167346
H        -4.36017136764860    4.73184725497996    1.05792626318986
C        -2.73668584851508    4.72115378807165    2.45324272066995
H        -2.03691825309758    4.28139111767539    1.75853217303382
C        -2.33164567453920    5.02861103267081    3.73717163871532
H        -1.31710711241483    4.82486599177604    4.05311301214627
C        -0.54740936275931    7.54661741159442    5.30786016651536
C         0.79572539272566    7.91488146743335    5.34527912615357
H         1.46835931520357    7.41831169729349    6.03099058972036
C         1.27461499231656    8.90020641592998    4.50662396334954
H         2.32078001123253    9.16142055230124    4.54522137014666
C         0.43424679602163    9.53999245014993    3.59794703165343
C        -0.90394054186465    9.15684568705198    3.55531296224651
H        -1.57923139910713    9.64145051875924    2.86722719329858
C        -1.39043631674348    8.17764348472522    4.39830387022289
H        -2.43344918201725    7.89832437613000    4.35076748542180
C         0.94697272007982   10.58956470081296    2.70757395500613
C         1.91437502039115   11.49016085261696    3.14228667712260
H         2.30939909367815   11.46928387305000    4.14464027040618
C         2.37342113419606   12.47059944903265    2.26365600377441
C         0.99499846970307   11.73392108553638    0.59622993122391
C         0.48152781007419   10.71904496878660    1.40287063864924
H        -0.25087599203616   10.04823455119598    0.98475302724914
C         3.39974628595801   13.42880553020164    2.69966299669062
C         3.85781525196660   14.42798262495066    1.84108481273554
H         3.44775763985436   14.49485259028457    0.84711365016176
C         4.82687600967466   15.30326174584905    2.29633309281204
H         5.20332527695580   16.08812745298995    1.65640341370706
C         5.30675289490020   15.15530026860883    3.58891494551496
H         6.06264459672937   15.81516684310652    3.98469956833765
C         4.78618668728612   14.12969763590655    4.36531850816548
H         5.12637184461460   13.97089565644890    5.38108845030907
C         0.51299962744229   11.89410769792222   -0.78349964294986
C         1.03767983677132   12.88329430047045   -1.61511392334956
H         1.80818178623321   13.53379433542033   -1.23593468281994
C         0.54977122447335   12.99618505998507   -2.90416044002547
H         0.93485438353239   13.75161511266294   -3.57369817805083
C        -0.44253637595785   12.12225028317959   -3.32187685458086
H        -0.85202568212649   12.17477392435707   -4.31836924311617
C        -0.89835058504309   11.17217121852846   -2.41896496886576
H        -1.67199346346988   10.46634521072170   -2.69465553273902
C        -3.30300029813369    6.34647342933283   10.16555514534465
C        -2.65481523431530    7.48527306780959    9.69867388098235
H        -1.78981137168582    7.34849826280594    9.06139236173590
C        -3.09482877895114    8.74290557962177   10.05766296599900
H        -2.57302105623414    9.62074990440270    9.70772111284194
C        -4.20969441152815    8.87156568197083   10.87150114387559
H        -4.56196898506335    9.85189778044326   11.15360397937302
C        -4.86769932358474    7.74222631082363   11.32790085519768
H        -5.73337131346797    7.84335943768772   11.96501476496832
C        -4.41515784703176    6.47820966692043   10.98831042952451
H        -4.92275185443288    5.60613277907416   11.37225894512819
C        -3.61807269735344    3.56455462689268   10.52122405821008
C        -4.91905270416089    3.46451424730050   10.02880897798837
H        -5.22259031464356    4.10983051548829    9.21313853423609
C        -5.80761421315918    2.56324820741267   10.58189593627642
H        -6.81558339486539    2.49324670490701   10.20033406216152
C        -5.40228882816586    1.74777571912415   11.62807701154852
H        -6.09370083162661    1.03996780186991   12.05872097597099
C        -4.11213518826041    1.84412904498563   12.12086686926846
H        -3.79765369187089    1.21248466700188   12.93799526472255
C        -3.21821774092038    2.74972729610321   11.57317360792697
H        -2.21395351029283    2.82237254767050   11.96581766586457
C        -1.05690851697442    4.77734153952331   10.80202378894623
C        -0.87097224070925    5.69491564070239   11.82983277605181
H        -1.59824085075923    6.47412265115103   12.00198774524522
C         0.24953446199867    5.60769678208518   12.63786950217376
H         0.39035282877359    6.32573748070409   13.43148785859183
C         1.18014257209134    4.60142023800958   12.44223929825802
H         2.04513926785227    4.53192206002851   13.08402509131100
C         0.99720701824976    3.67999068769152   11.42332159159279
H         1.71868431845909    2.88985887207564   11.27265715362123
C        -0.10995138461496    3.77526023374255   10.60211655984282
H        -0.25889712682068    3.06484605361167    9.79680362560238

