59
CSD_code = UZEZAC | q = 0 | S = 0 | Stoichiometry = C24H24N4NiO4S2 | MND = 6
Ni        1.69621695056376   10.11177047912362    3.43527877814474
S         3.30635924219349   11.76191978626772    4.37734018404536
S        -0.09718213313721   11.51610323358933    4.45201380033675
O         0.28730928748630    8.69675591289059    2.70373621305258
O        -0.19341266741944    4.95184011054171    4.46558165430853
O         3.89499681149835    9.03585331816670   -1.58946802644899
O         3.24842995833803    8.97565350298465    2.52610885002986
N         1.48456314557176    7.91665551181352    5.16409137573961
N         1.92283224066732    9.09315732312406    4.96509446198024
N         1.47328432660789   11.06153670008770    1.86123863587437
N         1.98585447683841   10.78592586598116    0.73128027577853
C         0.15754081006350    7.54942804685957    3.14147284436392
C        -0.63347704864091    6.56369154423515    2.33691525120587
H        -0.95906895528628    7.04042257002850    1.41497276063539
H        -1.49335915053716    6.22040465527696    2.90723924163186
H        -0.02930517118526    5.68708389924829    2.11651286909732
C         0.73092938069595    7.14009594729883    4.41785005456471
C         0.49350023703062    5.80444976290953    4.99209705453254
C         1.16702249404530    5.54178077369158    6.32154701278106
H         0.99277068281335    4.50759916028202    6.60706428198165
H         0.74412474036892    6.19798016434353    7.07862808179881
H         2.23414430193434    5.73071768613653    6.24774562951088
C         2.69725324436331    9.60163683169919    6.01380349333897
C         2.80528171900879    8.92182492399614    7.23549406113007
H         2.28205234245745    7.98643479438030    7.34507719480841
C         4.22887402766170   10.63741607186444    8.12987980616878
H         4.82081536538698   11.03443181406495    8.93964898947760
C         3.55568703258436    9.43196533104755    8.27182156912079
H         3.61931524523468    8.88560095471938    9.20082038276807
C         4.13960428608069   11.32332815328174    6.93383635449013
H         4.66518327155913   12.25591989998599    6.79294197215876
C         3.37596764030856   10.82019650001411    5.89355371645633
C         2.18900179033688   13.11082921631352    4.92397881414451
H         2.73119840393836   13.70765909426133    5.65866816079567
H         2.02190034276527   13.71042754517318    4.02815606118500
C         0.87661907791989   12.64528995668438    5.52158920957042
H         0.25002525069695   13.51095112447146    5.74061592838859
H         1.04148707378016   12.08077193980846    6.44034342977142
C        -0.15164317002852   12.50831871432147    2.96756966200500
C        -0.99503038796689   13.60693417864502    2.95313503505843
H        -1.58900514366703   13.82151046587249    3.82888880081700
C        -1.07577096517512   14.41078368374081    1.83227014158996
H        -1.73014795142663   15.26839706795965    1.82627153854411
C        -0.31243622052865   14.09681156610668    0.71639339093822
H        -0.36800048519812   14.71641944537354   -0.16598571866534
C         0.51801727826540   12.99787746748854    0.72187234359650
H         1.11168225039753   12.75378110361013   -0.14346910673673
C         0.61874058213003   12.16939261855327    1.84871327138260
C         2.82574298652517    9.84006625437430    0.37396102960852
C         3.12800503040224    9.82035201163336   -1.06761010985717
C         2.41467747883970   10.86892051050914   -1.89330432815177
H         2.64305008744411   10.70657611132301   -2.94349577522257
H         2.76057371408395   11.85765512921344   -1.60102896009567
H         1.34187429379458   10.80986560827775   -1.73388695042211
C         3.42997224849199    8.89683996216861    1.30720089340844
C         4.31797547947162    7.80851434957623    0.78593461418831
H         4.65370556278730    7.19629355462681    1.62003425835248
H         5.17145222693460    8.23892125412460    0.26742617648359
H         3.78162502981856    7.20005883587760    0.06193936445014

