41
CSD_code = UZEZEF | q = 1 | S = 0 | Stoichiometry = C19H16ClN4Pd(1+) | MND = 4
Pd        9.59426698048552    7.27456601173131    8.51129969535652
Cl       10.23746968232645    7.63649499846525    6.39012325863316
N         8.01466010154461    8.54993439023474    8.35775161192139
N         8.48582564109306    7.87322774838332   11.16811884704536
N         9.14613926781933    5.80303286784791   11.01696919704695
N        11.11613002689847    5.96576677791442    8.85713787289289
C         7.35501119265809    8.58200720790531    7.19707292979822
H         7.75849613918801    7.97745773175042    6.39113536491984
C         6.22806890448962    9.36252326889926    6.99813164531880
H         5.73986125248883    9.36152267083191    6.03753737712467
C         5.75538970058306   10.13368196314771    8.04577206576281
H         4.88415530438326   10.75860486600845    7.92998765480793
C         6.42632023543224   10.07889865295491    9.25840908633768
H         6.08002532689893   10.65930676277590   10.09897789080412
C         7.55191023597630    9.27875227259046    9.38847409360261
C         8.29185576547891    9.23367778760381   10.71456308177778
H         9.27822374889112    9.70806268556188   10.58174131476473
H         7.73535885380886    9.78870606008997   11.47036920153293
C         8.22613015268000    7.29695418815969   12.39865323024169
C         7.67672352943970    7.79032525240102   13.57176781950929
H         7.34994542082779    8.81387639385055   13.65912106352809
C         7.56453561499273    6.91340692565151   14.63396358592176
H         7.14178239985528    7.26231974366756   15.56235181171818
C         7.98477287067471    5.58782752809312   14.53630825906797
H         7.87702250756341    4.93933940341740   15.39084558719249
C         8.53539641040077    5.08505605795357   13.37277225542263
H         8.85551128407061    4.05775508370692   13.30797510781529
C         8.65473411516694    5.95591457187624   12.30094701101832
C         9.03606546071353    6.96203789154079   10.35693754185419
C         9.67288142344118    4.63120210006068   10.35105373549987
H         8.96099558489847    4.31704373902099    9.56998508294161
H         9.77832602870163    3.82259039172851   11.07477776019661
C        11.01249404083085    4.91948014521699    9.69516870833162
C        12.09645516396822    4.09475812211043    9.95761498150924
H        11.98420985204847    3.25768699104569   10.62859872472576
C        13.31763177852615    4.34673045656666    9.35028236281055
H        14.16530893985587    3.70746472898176    9.53952799910117
C        13.41843541873485    5.43921754517519    8.50646166171049
H        14.34554404843750    5.68480434616892    8.01529724169621
C        12.29783532242180    6.22472930871954    8.29164476471636
H        12.34129427130467    7.07925436018935    7.62427151402218

