39
CSD_code = UZIDAJ | q = 1 | S = 0 | Stoichiometry = C12H14N7O5Zn(1+) | MND = 5
Zn        1.63385195702776    2.50753928493182    1.83284631994055
N         1.47925585207097    3.53859439772211    3.64143968299499
N        -0.37257335995568    2.58236823774294    2.08923307502318
N         1.83591271055731    3.81040128913280    0.21480457575414
N         3.64167773373256    2.53978808102607    1.58501676856458
O         1.27078619341008    0.87344974530677    0.68712575859815
O        -1.33455633719501    2.07997378742695    1.21353427878004
N        -2.11750387973548    3.10519873106756    3.51285023334269
C         2.47255565734378    3.96457204953804    4.40571099054955
C         2.27921653567992    4.45774813297292    5.68761774182392
C         0.98847498509577    4.50459367383881    6.18666955725327
C        -0.05466503859911    4.05879169560323    5.38873781335123
C         0.22646027910169    3.57659304648793    4.11465326424198
C        -0.81524272862800    3.05834229762253    3.20568552182730
O         4.58043845636317    1.87285570889430    2.37152941426351
N         5.41248502745380    3.22616396887565    0.26662482897109
C         0.86249672923719    4.38999129824898   -0.46989167647137
C         1.07769096051978    5.06285193650448   -1.66356864766409
C         2.36897552480530    5.12628925640291   -2.15939145560531
C         3.39135913319197    4.51999942951707   -1.44471007069823
C         3.08938528160790    3.86571592431775   -0.25496272854344
C         4.10753526005271    3.17417988123519    0.56057046118138
N         1.58585262223118    0.12586294718992    1.63965916051089
O         1.92755303183032    0.69470597229333    2.69998048825970
O         1.56255113504357   -1.05666974200162    1.54203549333045
H        -0.83225288034719    1.56069485901821    0.56195883040905
H         4.05674540951994    1.27264318753978    2.93009786434849
H        -2.45665494553501    3.38155208325471    4.41500407399076
H        -2.75641998869710    2.65878104605014    2.87233028991806
H         6.03329364904674    2.66391571213452    0.82884343999970
H         5.76799992612082    3.64113108784554   -0.57399982646797
H         3.46240287533891    3.90958173717101    3.97666053421264
H         3.11864569424778    4.79037351516917    6.27574136725266
H         0.79225383265650    4.87728495813997    7.18002803579880
H        -1.06322362726648    4.08595386312666    5.76824384777669
H        -0.12884693946308    4.31377591344095   -0.04757813030270
H         0.25403307142202    5.51800411618647   -2.18855890121261
H         2.58131835900798    5.63445859502946   -3.08721026425958
H         4.39963184170547    4.55704829399263   -1.82416201104586

