81
CSD_code = UZINAU | q = 0 | S = 0 | Stoichiometry = C34H36Cl2F4N2O2Ti | MND = 6
Ti       10.04907230705760   11.26878710601390   -5.08253367045623
Cl       10.93422405127508    9.59667459268554   -6.35970545568889
Cl       11.78281361648616   10.96870438742497   -3.62920960044645
F         8.64163395978141   13.94583050298011   -5.82221207444609
F        11.09377889158303   14.09792543454055   -1.78851724124602
F         7.87259145813428    9.26055975458977   -8.42879348101128
F         7.04076058149697   11.94913687268505   -4.63575110155708
O         9.00028596125926   10.13287258469425   -4.22968604137165
O        10.92408180127004   12.53243509319555   -5.95292833028107
N         9.45324414170977   12.62850024460655   -3.59721037320838
N         8.70405207577596   11.36508695021170   -6.69352617066363
C         8.82029561111786    9.87178267753715   -2.99032907257265
C         8.65211748212672    8.40858202537560   -2.63065705823201
C         7.74569256514919    7.70769181101425   -3.66980311455560
H         7.18998450274515    6.91001803843828   -3.17179952558475
H         7.03028881001318    8.39942020235798   -4.11486289516047
C         8.69946809480197    7.10544775820374   -4.69655078866937
H         8.23411486283506    6.31367267012187   -5.28289954420843
H         9.06408696209693    7.87976506749384   -5.37570106346886
C         9.84816714906760    6.60970060035345   -3.82639716102132
H        10.74983282342791    6.41207846817394   -4.40192205280755
H         9.55414716508793    5.69481603300107   -3.30637352095565
C        10.05157500618852    7.74848243838077   -2.82559263930193
H        10.75447220071225    8.47594611812455   -3.24075432527294
H        10.45437120501018    7.39656659589276   -1.87681170216281
C         8.11454816310654    8.23323599569214   -1.20970679500374
H         7.04310072936225    8.45177692218898   -1.20062505699780
H         8.24654842466252    7.19271638166904   -0.90654776495980
C         8.81971385712671    9.16718112047636   -0.23508696966571
H         9.89856368663044    9.01774512162529   -0.29266236521956
H         8.49898756271735    8.95804630335949    0.78719058231985
C         8.49385634014538   10.61050707384253   -0.59486608550061
H         9.05855318506987   11.29272748874130    0.04294346098380
H         7.42806698885141   10.79742765697315   -0.41986312023787
C         8.82031830006098   10.89151750364775   -2.04111300582409
C         9.09190986682706   12.21589803428471   -2.40755219248934
H         8.97386206213123   12.96056752260030   -1.61579772315962
C         9.81605072587784   13.95024713061989   -3.78163113008967
C        10.63780011370217   14.68322558566101   -2.91206992697859
C        11.02624310165597   15.98258569296329   -3.17731117247244
H        11.67080890539846   16.48556129397607   -2.47441019568984
C        10.59028339065604   16.60932609225363   -4.33137195050310
H        10.88715736765110   17.62416342441477   -4.53984208581257
C         9.78148535918129   15.92514531863765   -5.22644125531342
H         9.43414758470183   16.38449987235085   -6.13825587794114
C         9.42208870216919   14.62515908208752   -4.94278348154060
C        11.23476351599545   12.67888000948894   -7.18543590785233
C        12.62308986733387   13.21993648775498   -7.46652715934233
C        12.94500382305703   14.38003267734577   -6.49522775381880
H        13.60449066783409   15.08962597190747   -6.99986839694479
H        12.04421918463543   14.90889914229844   -6.18366547978215
C        13.68336260386987   13.73449855419454   -5.32712636938149
H        12.97725024206633   13.22782541254554   -4.66483927869639
H        14.25509685075383   14.45721685787909   -4.74574206576338
C        14.55866055423360   12.69997456853333   -6.02416638633755
H        14.94068464709004   11.94839151743611   -5.33681929079340
H        15.40266512471073   13.19371139650734   -6.51184791401152
C        13.62176747200147   12.09028986154139   -7.06838360847829
H        13.08070743812397   11.25021783483748   -6.62443289907877
H        14.16062223792022   11.71929561450616   -7.93910632802146
C        12.77884282238678   13.65242615590688   -8.92524530779628
H        12.28413983183011   14.61684366241614   -9.07019082704745
H        13.84018116263684   13.78443197362964   -9.14459283456011
C        12.16032705358106   12.63129974130281   -9.87070858645960
H        12.58245684785576   11.64406482017665   -9.67867817884659
H        12.37221327739384   12.89927559334879  -10.90747513896474
C        10.65520782860082   12.58516264205610   -9.64421895665843
H        10.20711921875649   11.80233670904507  -10.25859124288281
H        10.21161484566652   13.54055717283543   -9.94713653492944
C        10.34025778690740   12.32207339297573   -8.19211897596459
C         9.10771820742116   11.73189016114897   -7.88461591804984
H         8.43006685697407   11.58241453746402   -8.72946708237438
C         7.51426495353585   10.67344741269599   -6.55687482132066
C         7.09774906583566    9.62329916188849   -7.38908918864210
C         5.92945909247671    8.91933814826176   -7.16728467631411
H         5.67371591063546    8.11390237382912   -7.83688567999465
C         5.11753129281219    9.25199730698262   -6.09726717760666
H         4.20354254899341    8.70813526669495   -5.92318085826265
C         5.48873831261747   10.27764865905877   -5.24079844932421
H         4.88187513475016   10.55266597592710   -4.39284424000097
C         6.66624601480757   10.95304857941739   -5.47891436924106

