93
CSD_code = UZIREC | q = 0 | S = 0 | Stoichiometry = C28H56N4O4Zr | MND = 8
Zr        3.70805636273113    6.04421409197010    4.28267142216275
O         3.86228089897784    7.82513439676959    5.46535970318511
O         4.99377040733647    6.22688759762330    2.61094597004565
O         3.65731626524619    4.88467260422695    6.05407309508332
O         2.28550579771094    5.13703741449989    2.99778787277684
N         3.09163303978040    8.07837639554966    3.43171353370153
N         5.99480592748499    6.22791245016077    4.55851036734105
N         4.34634525471103    3.82916465242982    4.26555011460557
N         1.47650497703950    6.04288424422120    4.81637937890891
C         3.52271960140215    8.62826011380372    4.52490818978328
C         3.59961338117029   10.13784998784251    4.78453861987130
H         3.70325458205312   10.66445462620725    3.83120060017796
C         2.30467481251627   10.59215353955084    5.46499329716220
H         1.44804048080280   10.43302699550518    4.81331436045453
H         2.36004112700705   11.65271990708253    5.70639878127634
H         2.15433835194508   10.03244721807049    6.38528742816530
C         4.80290203857747   10.47225602131185    5.66152418574965
H         4.74866030126566    9.91226477443043    6.59099546655734
H         4.81932514171643   11.53709055907859    5.88839993831825
H         5.72688574106833   10.20931423337317    5.15289681314246
C         2.69924651216993    8.79905820561617    2.23700013727587
H         2.24449583260536    9.77513523969064    2.47839842458019
C         1.66537842037711    7.93804260112370    1.51204986175261
H         1.39490270393952    8.37923256893665    0.55445412895075
H         0.77221037971343    7.84481720397549    2.12706518412555
H         2.09105409120678    6.94578187254857    1.36041529408377
C         3.92595648670157    9.01550315557520    1.34374778428155
H         4.39512504232621    8.04763407052578    1.17467591428831
H         4.64289461899974    9.67465724503234    1.83109425507864
H         3.63680518950270    9.45445091975910    0.39100264317440
C         6.09542154358618    6.29245983882915    3.26726928796314
C         7.39265973590910    6.45844967972591    2.46820977550771
H         8.21695645275317    5.97793877535357    3.00605984727311
C         7.25991216985625    5.81122576260435    1.09096783963493
H         7.12517291696887    4.73618732430880    1.18324538376483
H         8.15341345112863    6.00197891275194    0.49881582300363
H         6.39602898988340    6.21936158048070    0.57275104324780
C         7.69753555482030    7.95290054207473    2.32879849511700
H         6.88382132493081    8.44732505224046    1.80393632563278
H         8.61780650060253    8.09918765553853    1.76512464964927
H         7.81201320934441    8.41640037157304    3.30559293973755
C         7.09125054759398    6.28907639246267    5.50222959797138
H         8.07128404884993    6.15154239633298    5.01488183128400
C         6.88318647817717    5.17586592288693    6.53049234881012
H         7.65095575847535    5.21529757379467    7.30133089888052
H         6.91967192971050    4.20480415731268    6.04111320059420
H         5.89979777466549    5.30812718234395    6.97996071518810
C         7.07000562552571    7.64588828971151    6.21186698775967
H         6.06320862485870    7.81522874057736    6.58865902935737
H         7.32564463808235    8.44706907974776    5.52209201590722
H         7.77980919002099    7.65801860613028    7.03626460419168
C         3.99675422008971    3.77181906590692    5.51154429429413
C         3.91484330233005    2.50407526862783    6.36823164298227
H         4.55739733010058    1.72631072223375    5.94530218351506
C         2.46191310343097    2.02081663999597    6.34824745330885
H         1.81234718198783    2.81230459200366    6.71669537228065
H         2.34345178914689    1.14390536145930    6.98334216118946
H         2.15707822895702    1.76260749045240    5.33684173326602
C         4.35742290676713    2.79423301484898    7.80125276391094
H         5.42388075670038    2.99980600362799    7.84114801581243
H         4.14314845755735    1.93996006412941    8.44130970759195
H         3.82466429174992    3.66410173983251    8.17718537975723
C         4.75622419487277    2.70320675681388    3.45234738517004
H         4.27223234341190    1.76522518472057    3.77521577203375
C         6.27841853744350    2.53126914887935    3.54238661218091
H         6.62052921577470    1.77122961654706    2.84297039135389
H         6.57223278375761    2.23596735432674    4.54803936287836
H         6.75597336344555    3.48021726660918    3.30711806628709
C         4.33394313747565    3.00813555236771    2.01364854102862
H         4.69929674174646    3.99848354605492    1.74351870257720
H         3.24900473781884    3.02863325415089    1.94492344427122
H         4.72520366289480    2.25981084829423    1.32637758231107
C         1.26795029679347    5.33048575102400    3.75400682343662
C        -0.05567028640082    4.67124097863515    3.35277625540405
H        -0.89009665498663    5.17290198601614    3.85082722883526
C        -0.00967141357694    3.20969255655559    3.80694163884157
H         0.85394843760258    2.71897380490082    3.36285242402314
H        -0.91176104561949    2.68569936357727    3.49396120021438
H         0.07215216139261    3.14634614210066    4.88943762626472
C        -0.25143057440248    4.75020869362854    1.83975319656272
H        -0.41003047703030    5.77789534084282    1.52403441375312
H        -1.11305213704891    4.15605084149115    1.53975435603998
H         0.63592078450006    4.37164486085708    1.33892484858948
C         0.47661400681327    6.37987853235807    5.80830053788654
H        -0.24441556090590    5.55682316634434    5.95552623474742
C        -0.28189129767981    7.63868348565838    5.36967223029990
H        -0.94992538861861    7.98005977336055    6.15749831201110
H        -0.86790986952644    7.44497287526905    4.47337604602789
H         0.44157499946322    8.41835562019133    5.14620145580366
C         1.22070624931099    6.62939239433631    7.12134874668777
H         2.00264633542020    7.36795329909875    6.94592902184270
H         1.70385987700530    5.71144139022906    7.44845449663899
H         0.53992103610276    6.97821190845355    7.89606093154244

