58
CSD_code = UZITIH | q = 0 | S = 0 | Stoichiometry = C26H19F6NO2PtS3 | MND = 4
Pt        4.41106753620829    2.71861039574336    5.71659480491638
S         6.54619111786062    3.40193282376592    1.89038787964423
S         3.47974321651975    3.05064700690769   -2.24927149761597
S         0.09135483588396    2.95835082065350    2.17931354501983
C         3.06867394849507    2.40898578671166    8.41687118001089
C         3.08465454543511    1.99076037842372    9.90099793696142
F         4.29846843388946    1.59937553141139   10.29536135704940
F         2.24265166979167    0.97323057310675   10.14053041722350
F         2.71117509643689    2.99574402413797   10.70805946979144
F        -0.18636085169156    4.63514647652581    7.22280685561874
F        -0.66157452867528    2.78728261727570    6.23327843399081
F         0.20693820778013    4.41407283417377    5.12131719652926
O         4.15819225195111    2.34273900371356    7.81714825514760
O         2.44729292013560    3.19815745608217    5.64510217827091
N         6.37336592451696    2.53172706092611    5.78659991344165
C         7.05890817054735    2.24058696678996    6.89008520081779
H         6.48156643464027    1.98111778122178    7.76738319436812
C         8.44009840934658    2.26299139183257    6.92980239780054
H         8.95469723524778    2.01657797468289    7.84361953647969
C         9.14498870264664    2.60913349110165    5.77995137736689
H        10.22354096313537    2.63926978414348    5.78884325074078
C         8.44603359434357    2.91158168762206    4.63124388060028
H         8.94643029001240    3.18393437328499    3.71556785412348
C         7.05021838518653    2.86734979141761    4.65018133930932
C         6.16952409198832    3.09879513525150    3.55536850741667
C         4.80946390268446    2.95876986862660    3.78205023698110
C         4.06442082706781    3.05034126386538    2.58508713641576
C         4.85998717866997    3.28009288868278    1.47765609687293
C         4.86582658590387    5.31583756749135   -3.14933373311492
H         5.30954469324400    4.76883880091582   -3.98069031576496
H         5.56257905218957    6.08321296441723   -2.82110609293325
H         3.95817262699882    5.79645855197194   -3.51357537314292
C         4.55784955225266    4.39734887373974   -2.02229262592782
C         5.01065012881168    4.43612366030134   -0.74811905421498
H         5.69156775841472    5.18302425141037   -0.37961233366044
C         4.48747372254945    3.40048559708223    0.08374221659533
C         3.65234600022678    2.55442342905289   -0.59655333748300
C         2.97512637083297    1.31668329609596   -0.13163559533662
H         3.02530699264850    0.54914009836462   -0.90230207544838
H         1.92313930679312    1.50626523355537    0.08375703411397
H         3.44782300700689    0.94614084974197    0.77434944835122
C         1.86024601593106    4.87611289885076    1.18536513135946
H         1.09945868813805    5.59890992918251    1.47468385369652
H         1.76882627351955    4.70265954732259    0.11213032060841
H         2.84310494550807    5.29609859614491    1.38438760604407
C         1.68331543081412    3.61211100875624    1.94694467992621
C         2.62017353613684    2.84176736480070    2.56999352777286
C         2.05169638120105    1.72871720786679    3.25802407424672
H         2.65562123679365    1.01886077400924    3.80357142764835
C         0.70535304491123    1.64394411183063    3.13768515925727
C        -0.21567181091887    0.61380428696368    3.68667799656336
H        -0.73399796255503    0.09317008308138    2.88148620451989
H        -0.96926749889146    1.06979736472507    4.32727765018169
H         0.34670248828280   -0.11195790060910    4.26955734582881
C         1.83159267026425    2.83643794765171    7.93778943376966
H         0.99715657295043    2.88652306757077    8.61713976804071
C         1.65317545718905    3.23255637202209    6.61224316084452
C         0.24709622279616    3.77619897758335    6.28747656234989

