58
CSD_code = UZITED | q = 0 | S = 0 | Stoichiometry = C26H25NO2PtS3 | MND = 4
C        -2.71535545314557    2.59601177108944    4.29686142775522
H        -2.86999532642021    1.53641780278333    4.14562347844534
C        -3.71118803859633    3.51197835507115    4.01497208428374
H        -4.66098446807099    3.17545602048875    3.63246631245335
C        -3.46629764527242    4.86467320763299    4.23468661629875
H        -4.22882523467707    5.59971947522808    4.02685687245429
C        -2.23534724744464    5.24995239492757    4.72084747902911
H        -1.99655111646051    6.28532970443583    4.90687237734272
C        -1.26899553771298    4.27612726424556    4.98167438254676
C         0.05891131781018    4.49550223790103    5.44633173733549
C         0.89110040842831    3.39990112248848    5.60143665978109
C         2.20132673572311    3.80294238899530    5.95947617535865
C         2.33595689936999    5.17070264653826    6.08477175066612
C         4.10951486292497    3.55054158271662    8.47439026862329
H         4.90805519737610    4.29418388981674    8.46041453518841
H         4.26510610512555    2.90765646653598    9.33936050077629
H         3.15954933595409    4.06874789761999    8.58215146178677
C         4.10729761703725    2.74829566145044    7.22279482390559
C         3.28518904971546    2.84057183199047    6.14050887555052
C         3.56768577299397    1.86021268937163    5.14469486099499
H         3.00021559281657    1.78801182295121    4.23198894376146
C         4.60046394426963    1.04504727375805    5.45917509669680
C         5.19254762433438   -0.06194606008616    4.66104191742940
H         5.34650666834660   -0.94554924730246    5.27839733543454
H         6.16082446791949    0.23152015024865    4.25284266021162
H         4.53026367167982   -0.31464046343349    3.83631110440522
C         5.20373045293932    4.89009307352830    4.78427784616466
H         5.75022900194429    4.03849286227365    5.19095069962178
H         5.86797009372212    5.41813328545704    4.10164352517143
H         4.34663097454012    4.51420405505288    4.23118712818569
C         4.75358495110674    5.80009150537088    5.86923839234278
C         3.51080852110923    5.94939096308882    6.42183144536536
C         3.46665298895218    6.99868125904959    7.38880372630244
H         2.56482566203895    7.26091524265446    7.91358930370947
C         4.65584672861330    7.61148943219917    7.58899674632250
C         4.98847460367867    8.71905001776171    8.52320495931246
H         5.37183869166760    9.58074496360623    7.97733721970768
H         5.75384051081897    8.40737708530835    9.23377682656052
H         4.09914662903301    9.01808039385805    9.07277989843912
C        -1.99785041135112   -2.27183167932997    4.88425917480681
H        -2.91655531442900   -1.81737745666216    4.51996110798397
H        -2.21945118460526   -2.89871280496066    5.74535519940222
H        -1.57715325271372   -2.90230188860470    4.10221521583673
C        -1.00127183196388   -1.19530377238693    5.26242325893447
C         0.19067850887456   -1.61617572380125    5.85741088440721
H         0.31658969873730   -2.67443982614759    6.02700723687083
C         1.22179894084009   -0.77154472102100    6.26697928203730
C         2.41156866679806   -1.41867384710503    6.94327417318621
H         3.10009879100960   -0.64961067409526    7.28107022090258
H         2.92143706578128   -2.07556959983607    6.24185601558488
H         2.08468511645809   -2.01358892455548    7.79275091489891
N        -1.52411857887375    2.95475113403287    4.76682396599797
O        -1.32673955676858   -0.00498392810081    5.01607516766308
O         1.28517753176605    0.48572403579117    6.13522823193485
S         0.84536014888479    6.01129382069868    5.77029091718547
S         5.25552455675150    1.45701179793352    7.02010667867742
S         5.88114045776033    6.92361491198829    6.56254643793822
Pt       -0.11597436714202    1.69550711948987    5.35349846001522

