140
CSD_code = UZIWEG | q = 1 | S = 0 | Stoichiometry = C62H67N4NiO2P4(1+) | MND = 5
Ni       15.25899870990649   16.17885023853966   10.04338051695472
P        16.35129344027374   16.41751007389318   11.90001296764442
P        17.23937405640662   16.85572539136146    9.22200569264504
P        14.04026074605553   14.38627219715569   10.50096994694862
P        14.15571505606794   16.01475096307357    8.20097043706720
N        18.14483502040008   18.36264979549185   11.25893752845174
N        18.31461807433068   14.86439207671648   10.76634960944048
N        11.92174378531509   14.66011344536495    8.92531819099500
N        15.14185542187060   13.46045278260175    8.16227391176258
O        14.72844132164049   18.43508675666487   10.13978766338450
O        13.16137724093033   17.20363794418712   11.03599667789954
C        17.77826413628161   18.49624543838301    9.86373688800829
H        18.67289163975321   18.78753956865869    9.30085564799385
H        16.97603748501545   19.23326141247732    9.70850856172149
C        18.69090089466827   15.82866591371369    9.75333851763511
H        19.04204886861955   15.28023148631459    8.87524555698612
H        19.49025329271637   16.51204222691314   10.08982432006814
C        17.94758563745854   15.48743060503315   12.01887024681156
H        18.72493061478200   16.18192811890549   12.38134243897071
H        17.79108297464463   14.69325142862846   12.75327617564798
C        16.99499746771342   18.14576395975673   12.10662753929543
H        16.17842053125958   18.85896847407226   11.91771872147452
H        17.30030405974010   18.23068404439974   13.15656840878933
C        15.61612276528830   16.18646490029656   13.55589649726502
C        16.43061614479907   16.01086622560315   14.67285830248197
H        17.50597380930862   15.98562797690809   14.57288976129009
C        15.86642967642110   15.88058837042448   15.92798981768994
H        16.50373441400232   15.74094239279009   16.78839376047284
C        14.49114853756036   15.94033321648426   16.08628730380298
H        14.05763195079052   15.84354380073365   17.06989463522816
C        13.68044904510542   16.13617514265569   14.98240360492433
H        12.60948565479058   16.19847300905571   15.10250386871726
C        14.23884526168365   16.25284348024388   13.72132988421453
H        13.61291074167038   16.41062058834398   12.85461092606485
C        17.52597386371431   16.96130126838975    7.42840342440837
C        17.69454666618338   18.15085438608992    6.73162027628784
H        17.71079801997224   19.09484100890869    7.25329170040170
C        17.83796738386861   18.12864095017070    5.35460125618316
H        17.97268287719818   19.05485010949932    4.81703890779869
C        17.80334232649332   16.92945725935837    4.66476925450361
H        17.91000156931920   16.92010501602069    3.59105201318084
C        17.62965945153137   15.73996536403260    5.35532258478222
H        17.60593084005696   14.80318715791271    4.81736896114846
C        17.48633887639822   15.75684371055413    6.72899371853882
H        17.33960734723804   14.83717282789169    7.28126762593198
C        18.95280094502868   19.49707967579502   11.71014569947664
H        19.15722842455006   19.35256902378773   12.77526894043156
H        18.40798977837561   20.44677802082899   11.59137998637937
C        20.25778093838220   19.55223114191598   10.96244289016900
C        21.20232490621985   18.54792112782861   11.13838761324243
H        21.00427980090922   17.73977076287170   11.82851157555016
C        22.39998927422870   18.58498099763644   10.44800097486177
H        23.12816021473073   17.80406255615559   10.60214150297809
C        22.66702530534264   19.62386764534913    9.57208291725344
H        23.60447625821431   19.65454762768022    9.03818808987794
C        21.73153425200129   20.62746476999381    9.39012536857324
H        21.93589201208238   21.44308928663215    8.71315908612680
C        20.53238042189550   20.58924837281943   10.08043380915736
H        19.80682782637206   21.37839212163660    9.94110147475271
C        19.34985847580736   13.84229437284120   10.95580327508146
H        19.49823314470327   13.34552912569788    9.99370588420500
H        18.95207819542099   13.11102718068414   11.66550659536318
C        20.67726780149188   14.36214650983482   11.45240386440091
C        21.69204502451357   14.66704282421656   10.55330303033683
H        21.53390381424551   14.51410059302299    9.49495232749034
C        22.91337748883510   15.13871577699781   11.00069155761361
H        23.70034517963999   15.34293440228866   10.28985563483425
C        23.12952868164911   15.33363916032812   12.35434818698099
H        24.08079530029503   15.70333200916614   12.70566216851506
C        22.12362138199771   15.03806215240971   13.25839874367656
H        22.28955229174093   15.17699101009817   14.31629786363414
C        20.90951942113148   14.54735196005459   12.81057605707051
H        20.14375403949336   14.28635109007238   13.52803288159058
C        12.20660552506069   14.51503730239429   10.33540682547590
H        11.78779049159636   13.56573044885459   10.68955866991591
H        11.82859120226187   15.34782186308319   10.94366346178481
C        12.31784923548066   15.95435435816899    8.42052708388750
H        11.99776553460911   16.78208905914813    9.07016783882477
H        11.89114041927895   16.09724136487194    7.42130025962385
C        14.32942248972934   13.01906124901774    9.28004429124029
H        14.86275622007408   12.21662363967812    9.79516752744186
H        13.34860372214975   12.63801564640098    8.94501060371362
C        14.43632762169953   14.41239802539805    7.32812848636681
H        13.46299812285991   14.01633818611988    6.98381267574349
H        15.06049656122263   14.63288021850956    6.45751090778425
C        14.31259478193802   13.52385035402030   12.07780169682186
C        15.59412637882384   13.01822272667014   12.28468998136153
H        16.33099433798531   13.12444186197153   11.49879805526844
C        15.91112120690078   12.38980484667241   13.47287196547073
H        16.90162973374462   11.98704543148028   13.62785878483774
C        14.95509359469323   12.27491028263131   14.47051065942864
H        15.20220974671965   11.79036869509544   15.40249366230633
C        13.68438868745318   12.78592810761718   14.27191703202167
H        12.94205022509708   12.69971985585947   15.05070292602967
C        13.35955851310896   13.41476310024105   13.08160437415667
H        12.37099332932453   13.82498295384237   12.94506926698110
C        14.25230063415798   17.23934250557729    6.85249759635908
C        14.69800416470000   18.53090361096355    7.09855188754093
H        15.00977102173850   18.79301602046608    8.09922313859312
C        14.71538355757083   19.46763748156535    6.07965804344042
H        15.05407814139377   20.47314014458034    6.27928336297732
C        14.29820071578400   19.11773743310103    4.80757147635959
H        14.31535772557237   19.84539432415331    4.01065153217378
C        13.84493031862466   17.83172780940218    4.55957566184190
H        13.50644585942295   17.55855816452748    3.57142925212130
C        13.81266314123656   16.89521017124507    5.57562266552333
H        13.43495051121832   15.90333391399304    5.37146947495867
C        10.55067768595834   14.31783571095801    8.54555184784882
H         9.83922136953822   15.10720910565522    8.82975579401564
H        10.27575704052233   13.40110052922202    9.07403768171414
C        10.50692852803354   14.07297764213318    7.06026309309191
C        11.11539449169518   12.93861465580284    6.53413366015694
H        11.54767162456814   12.20914014599834    7.20502577361674
C        11.15415301205019   12.72971503124801    5.16731499736282
H        11.62466071571441   11.84233207213865    4.77015345891728
C        10.58315211189407   13.65464272800274    4.30842865269314
H        10.61106229563253   13.49156212688045    3.24191714802796
C         9.96653846599073   14.78174082620927    4.82318558513418
H         9.51098005469933   15.50070240521987    4.15931033503656
C         9.93191953902843   14.99095255703263    6.19178170598790
H         9.44408344616518   15.87049408880421    6.58792562748511
C        15.55798540282765   12.32104603448468    7.34495459332648
H        16.19588750346732   12.70843942090684    6.54159884263189
H        14.68347860274546   11.84384534719711    6.86952283679599
C        16.33109475266637   11.28338611634051    8.11245854978430
C        17.26766722553327   11.66276761240775    9.06573197963106
H        17.40832620496494   12.71518621688943    9.26496815942533
C        17.98807777085451   10.70326221895292    9.75442791697890
H        18.71485065753295   10.99830544608291   10.49637356578921
C        17.78861247578230    9.35841561528984    9.49094045947588
H        18.35579998917437    8.61218889181328   10.02593642835527
C        16.86029447246310    8.97473174515912    8.53920753298942
H        16.70025907218670    7.92830518363274    8.32892997328108
C        16.13190480369000    9.93352053065403    7.85707466622438
H        15.40617593599350    9.62964093058859    7.11624306459691
C        13.61542030867925   18.31979179670031   10.71705232582667
C        12.81618542349432   19.57516809785795   11.00488110619128
H        12.33210501882039   19.89770032914515   10.08444457172097
H        13.47670427570711   20.37057227297023   11.33896230513208
H        12.05887795015274   19.37320160693430   11.75644238082559

