73
CSD_code = UZODET | q = 0 | S = 0 | Stoichiometry = C37H28FeN2O3P2 | MND = 5
C         9.31324432823068    1.23832092277985    5.27455424755234
C         9.49203392750560    3.81951953962681    3.70505154736323
C         6.53757188731238    2.93620487688511    2.25684013763272
C         7.21752048746354    3.38188014924991    1.13025158122782
H         8.27441102657261    3.17991133912727    1.02411939951605
C         6.50768787638060    4.09150356477926    0.17554241189973
H         6.99980799112252    4.45619677713396   -0.71483291894673
C         5.15801922308075    4.32869018105555    0.38533784996343
H         4.57083394979306    4.88139406469257   -0.33163851316473
C         4.57580955088638    3.83995105662770    1.54640712747226
H         3.52630742340839    4.00036115407746    1.75964673394412
C         6.51311644537127    0.36620223708332    3.33144480007289
C         7.25870081996746   -0.79138509845654    3.14781221437277
H         8.33973106605974   -0.73143519098338    3.15202614407933
C         6.62194438533233   -2.00667519225752    2.96526067946936
H         7.20638547709407   -2.90429598574295    2.82377172691883
C         5.23916059322971   -2.06974131208882    2.96473678278860
H         4.74192228058204   -3.01821112042641    2.82265891631613
C         4.49154871183856   -0.91587022602136    3.14834436388350
H         3.41230405143503   -0.96711575077465    3.14984058494513
C         5.12069618995303    0.30011577024524    3.33335972245738
H         4.54889527835201    1.20620232775638    3.47535999099902
C         6.46735062179495    2.60936263990704    5.03360917617634
C         6.05706609021402    1.75427326281314    6.05134809057665
H         6.19061877785099    0.68574074173071    5.94329797494044
C         5.47859982140639    2.27226762000937    7.19601575033941
H         5.15775668264822    1.60601067024209    7.98378118267690
C         5.31439105027899    3.64044447403682    7.33471314819990
H         4.86041242537830    4.04180955490182    8.22911175382570
C         5.73967456091577    4.49624328592595    6.33057493852255
H         5.61977553241482    5.56420313467239    6.44330654858381
C         6.32361122617142    3.98547420558644    5.18731257642948
H         6.66925189581260    4.64897378696993    4.40502254533283
N         5.24503878984365    3.16194331551557    2.45871722842748
O         9.15448986906083    0.73373396089847    6.30314639770740
O         9.49190910856310    4.97448375923611    3.70469370324458
P         7.35614357394156    1.96849265886781    3.58185054526802
Fe        9.49202459171984    2.04150910883365    3.70474996149802
C         9.67061230354286    1.23813908180792    2.13496602552765
C        12.44620628787640    2.93627923673499    5.15244301167120
C        11.76626045131248    3.38188385201888    6.27906901622932
H        10.70938404992201    3.17986316625569    6.38526827008433
C        12.47608812780228    4.09145179825168    7.23381724443465
H        11.98394958851668    4.45620280988520    8.12415937363368
C        13.82578065467880    4.32858438007484    7.02408877349586
H        14.41289289329539    4.88151047894363    7.74095334585112
C        14.40801058834670    3.83983443743797    5.86303268983869
H        15.45746634437777    4.00042398118622    5.64969650288505
C        12.47077841610059    0.36607268746753    4.07782929076681
C        11.72520907261153   -0.79153384320483    4.26144655426986
H        10.64417573134683   -0.73160675407050    4.25729284345078
C        12.36201583158126   -2.00678761884303    4.44405018832462
H        11.77761213185473   -2.90445308401572    4.58540049095941
C        13.74480183876271   -2.06979814056699    4.44466324526962
H        14.24207112099652   -3.01826578409581    4.58662568373681
C        14.49238646347504   -0.91590436423621    4.26108396867835
H        15.57162838421866   -0.96709882625208    4.25966899873709
C        13.86319251877637    0.30004072621136    4.07599701645853
H        14.43496236361015    1.20617004491045    3.93415414623997
C        12.51666502224112    2.60927726395524    2.37576264780794
C        12.92692454627562    1.75422541647582    1.35798138398255
H        12.79338558135846    0.68568254390515    1.46599363737041
C        13.50515605363283    2.27228206231631    0.21322399823244
H        13.82609147643183    1.60604753297685   -0.57452738164101
C        13.66920099886555    3.64047148479282    0.07449040349041
H        14.12334155049956    4.04185588981563   -0.81982161300367
C        13.24412489177633    4.49622425641917    1.07875383354357
H        13.36414321980339    5.56418393161636    0.96611013348469
C        12.66039755275134    3.98539611700306    2.22209359205476
H        12.31476259412066    4.64887008459923    3.00441332120980
N        13.73875654318264    3.16198911660401    4.95062736599106
O         9.82916134890919    0.73310470388876    1.10657843882998
P        11.62783586816150    1.96839106521622    3.82746650558988

