69
CSD_code = UZOGOH | q = 0 | S = 0 | Stoichiometry = C23H35NO9Pt | MND = 4
Pt        4.29204114838436    1.05123360913477    3.69222155052644
C         6.32493070263931    1.43048526769008    3.74538242854762
N         2.07741992461159    0.73159884174728    3.50817836802528
H         1.76632840179208    1.61395844844100    3.07360573997623
O         8.69330180798820    1.78404672645855    2.08931979529199
O         7.91423153999241    3.72034434257401    1.28249626716648
C         4.19716771800858    2.87386621567261    2.73586729306707
O         6.91971149071411    5.30144515473491    3.34576876042827
C         6.92485501409935    2.54845816399135    4.53526740262203
O         6.62811428670896   -0.45035990467340    2.39703314352039
O         3.26741691900776    4.58474971189204    4.06964204877357
O         4.95902509183204    5.92556336112076    2.48506142242266
C         7.11559444644847    0.19130042846001    3.49209683184499
C         4.58588094555090   -0.61867509023952    4.52393864365379
C         6.70144555072135    2.72988244601889    3.02559550631544
C         4.74590155197243    3.08528192561670    1.35034115195506
O         7.97047710875457   -0.29071472568080    4.18602074164941
C         5.55028325197048    3.58322333130536    2.56034528647414
C         5.73036177126024    5.03990395765931    2.77219964149388
C         7.87375134816014    2.67210505522750    2.11918762194361
C         5.30249068216102    1.92931030926636    0.54297555795732
H         5.66535071838429    1.12008258468616    1.17010791397660
H         6.12290381275645    2.28125154077520   -0.08099522640167
H         4.52784491993396    1.54276722800182   -0.11710823637633
C         7.29716394949370   -1.65304903229111    2.04834421869627
H         8.35198070384241   -1.44635702479441    1.86007274549557
H         6.81054721689959   -2.02556870702189    1.15028331901285
H         7.21828639663394   -2.37923969059019    2.86055346955132
C         8.34582465771692    2.46187543885026    5.04824771571427
H         8.36198797211675    1.91728495311566    5.98955433591680
H         8.73003840326678    3.46733441931976    5.21463461080559
H         8.99490097377270    1.94285582226657    4.35256475433920
O         1.88218823816936    3.44142865751577    2.71898125230057
C         4.06924117609614    4.08975205855472    0.44033036482522
H         3.16034476862299    3.65151483828373    0.02907327105716
H         4.73225224403359    4.35103895821754   -0.38299439547317
H         3.80129694592549    4.99843681237712    0.96850550083995
C         6.03426067380948    3.29224677222951    5.51021559245689
H         5.00791719969916    3.36526241257876    5.15729940633688
H         6.41241355058593    4.29819403181336    5.67745367067207
H         6.04283205195234    2.76090575744123    6.46133781534313
C         1.72223689887872   -0.35490518836334    2.59216462587813
H         0.64888209255931   -0.32145803446721    2.35836211625110
H         1.93124732946134   -1.31009529084522    3.08690850575265
C         3.01377439602363    3.67014497736919    3.12475160216464
O         4.91515301772075   -1.64370026157953    4.90181498625413
C         2.54321182109124   -0.24042420715762    1.31808853744416
H         2.33162783593681   -1.07060534884500    0.64963153979040
H         3.60936550500894   -0.25374387794652    1.57015159092895
H         2.30986113936378    0.69056382663790    0.80682378826979
C         9.00382444287087    3.74374482190984    0.37531445295512
H         9.94392227847166    3.88006948256583    0.91401909438251
H         8.82517513761991    4.58106217652029   -0.29489163877187
H         9.05510913938483    2.80585244483749   -0.18278743493432
C         7.20503335312167    6.67088687228518    3.56521636350809
H         7.22597802825797    7.21306222176343    2.61731655464140
H         8.18022737667664    6.70633478440395    4.04479818418768
H         6.44408999752458    7.12141901406243    4.20731454690742
C         2.21966942582513    5.45277043346680    4.46644113185563
H         2.43420387344237    6.44744994574797    4.07350703749062
H         2.19856200856390    5.47765058524905    5.55602424889437
H         1.26626147158259    5.09654711282530    4.07011926278632
C         1.40731206237786    0.60990096221870    4.80593415063295
H         1.64848087759085   -0.37346392331139    5.22560438854540
H         0.31696214221326    0.66618776324345    4.67951951568294
C         1.87607039658712    1.70170949205217    5.75675784153132
H         1.47000473288002    1.53854922015522    6.75146078410285
H         1.54872636252402    2.67636406036138    5.40547762446385
H         2.97101957992424    1.69290052710337    5.82004929569040

