25
CSD_code = UZOPIK | q = 0 | S = 0 | Stoichiometry = C5H6AuCl2N11 | MND = 4
Au        3.69822473011139    4.65404221240484    6.46232089505313
N         4.14985775687827    3.74944166027454    4.83642068716175
N         4.97309079873973    3.34725837353281    8.61996450670348
N         2.37193782867387    5.94916330748623    4.32668348025979
N         2.76991004952342    6.00180325118469    5.43783476447598
N         4.73192392459921    2.73876891975136    4.65823200443835
N         2.53424046559711    5.16364279254325    9.20500287765370
N         3.60326981153522    6.89103800333194    8.46729712107480
N         4.65514288314420    3.32802647312804    7.48778973410275
N         5.30372059004815    3.26005430536750    9.69536773593375
N         1.92690949877639    6.06063175977495    3.30084539745824
N         5.25843429139301    1.80376562735694    4.32288125243352
C         3.21099945678318    5.64737057788403    8.15099407121049
C         1.91933989092523    3.86793491015163    9.31842433851621
H         0.87974196790369    3.98247899527231    9.62537782298172
H         2.44772027793510    3.26997536867779   10.06355496892590
H         1.96186126612784    3.36273685495238    8.35570972277648
Cl        1.73693465472611    5.84179549200239   11.69290078351123
Cl        3.49391352920903    8.68535495373675   10.49163871599042
C         3.18121989274323    7.19842173135467    9.73658088147046
C         2.50373102112886    6.10463664071347   10.20381283068756
C         4.34876743546236    7.78035636401471    7.61625881022774
H         4.09363422680362    7.57262232203852    6.57854035727037
H         5.42072499205385    7.63808380570335    7.76304028795347
H         4.08864875917806    8.80839529736718    7.86072595173109

