128
CSD_code = UZOREI | q = 0 | S = 0 | Stoichiometry = C48H72N5Si2Y | MND = 5
Y         2.76519121090306    8.46051518767008   11.54764430192080
Si        1.92183945924111   11.83420681794230   12.30699058768298
Si        4.70285013353713   11.44176612405309   11.36455605929833
N         0.83849822658910    8.40636665242382   10.08786727924105
N         0.68460879166621    7.37867320696486   12.00755271004245
N         4.37674321018917    6.84710167356521   10.83481964081679
N         4.52729649460789    7.51610094799435   12.90733956548636
N         3.16196697997704   10.76403455132795   11.75599681524815
C         0.01566908412270    7.78162777182754   10.92089625628425
C        -1.50603837687025    7.55779237995304   10.75987470598820
C        -2.17957401047075    8.29424363555601    9.59206582378901
H        -3.23878024077886    8.03723996307066    9.59768654584633
H        -1.77556107452279    7.99907339602032    8.63022050238945
H        -2.10979229363730    9.37212483499168    9.70503625061216
C        -2.24361253344475    8.08160653865796   12.00784564351892
H        -2.14184887428823    9.16380870249816   12.05857561445532
H        -1.88448806646738    7.67626189773309   12.94537448394350
H        -3.30332000537749    7.84478453563636   11.92316243112039
C        -1.78351630098988    6.06487959606366   10.51134953061517
H        -1.43578916619153    5.42264715540967   11.31144964433174
H        -1.29833192930163    5.75500247070352    9.58749065124479
H        -2.85549160373974    5.90872593479464   10.39856435668508
C         0.56161292995197    9.13913458213816    8.87016172219241
H        -0.27831669746528    9.83564383900835    8.99232385401918
C         1.80347546329352    9.99386261921721    8.56308934561871
H         1.99277379960777   10.68198181422266    9.38790442628249
H         1.65471650109189   10.56495248322796    7.64838214942500
H         2.66634401960709    9.33939642638105    8.42901983122836
C         0.29499422578738    8.25610335046370    7.66400909862734
C        -0.19502153240495    8.81786263673461    6.48962639590211
H        -0.41036340731520    9.87658966047250    6.45325428846936
C        -0.42463553960742    8.03351845136829    5.37463347420563
H        -0.80625684793708    8.48390277484626    4.46971405117654
C        -0.17517665159781    6.67171279074957    5.41800099724265
H        -0.36296484435608    6.05767230502513    4.54932408562655
C         0.31094403469527    6.10395222532918    6.58207197716358
H         0.50217464655742    5.04090579719124    6.62505257063746
C         0.55180777699676    6.89376134285047    7.69230561418067
H         0.93322524417383    6.46025004276664    8.60417955133981
C         0.30740134982575    6.38443892548789   12.99602692884536
H        -0.76875750184738    6.16484527420839   13.01558764888766
C         1.02561473042432    5.07024757093797   12.65105199268178
H         0.76799365938760    4.77621179021322   11.63566135753730
H         0.73162349356273    4.26631630454972   13.32155720029356
H         2.10258732782737    5.22102301885693   12.70189535842632
C         0.65834798967502    6.90376961351938   14.38240195299371
C         1.08376004713459    6.07252208563345   15.41229555004172
H         1.21078585794588    5.01499867221128   15.24800453214777
C         1.34647248221698    6.57869057616943   16.67352015240060
H         1.69123372897868    5.91418902937537   17.45208855927972
C         1.16601329295310    7.92372323898629   16.94009249812111
H         1.36350068110301    8.31516917866919   17.92682487231144
C         0.72220751347124    8.75995715111556   15.93038300433899
H         0.56082187572004    9.80982660472900   16.12703487983463
C         0.48162076500789    8.25696405850775   14.66280502478065
H         0.12817371124183    8.92231368560998   13.88851764454074
C         5.11450682048569    6.80843325525940   11.95027126366296
C         6.46850450274556    6.06444206484473   12.01648788691669
C         6.21955111880814    4.54614372845116   12.00079303367770
H         5.63263461100614    4.26678747930554   12.87402817147503
H         7.17241125432374    4.02112878128862   12.05184927890562
H         5.69754398901210    4.20394603169260   11.11528815829759
C         7.32347812026024    6.32165935858784   13.26648379637950
H         7.61977524802852    7.36380016763263   13.34134891731017
H         8.23607838680769    5.73239302034770   13.17744899722477
H         6.82322863158384    6.01568028693691   14.17835974091519
C         7.36869836183713    6.51498073437970   10.84921046902483
H         6.91738847295039    6.41895153047782    9.86982148674908
H         8.28510286171629    5.92642504789275   10.85596403778955
H         7.63735851885437    7.56069981733912   10.98501663391252
C         4.42500051895675    5.97294388756126    9.67658622519227
H         5.36243931612912    5.40751834993736    9.58650653369360
C         3.29303074429133    4.94231064685860    9.80990569125519
H         3.40729334915226    4.40376409424384   10.74842891486654
H         3.31368787605790    4.21834468263351    8.99894389150252
H         2.33396206858675    5.45720173729648    9.82402673817803
C         4.31455754217210    6.81417092580069    8.41364062854540
C         4.94947388949664    8.05346664555295    8.36888832088307
H         5.48376115543562    8.41249311631698    9.23638544750053
C         4.93245979796565    8.82252079478099    7.21745976254573
H         5.44631535712538    9.77262949815626    7.20303370712117
C         4.26144222274174    8.37773014383037    6.09157655209304
H         4.23818954914157    8.97987073292576    5.19560751234803
C         3.62699056113347    7.14926475499641    6.12391314410322
H         3.10053428265693    6.78894253772105    5.25236694756180
C         3.66359845909597    6.37110378779103    7.26807405329947
H         3.17984208059470    5.40830006365048    7.24874077677807
C         5.00574674580968    7.89035080436996   14.22178628384017
H         6.03146509674068    8.28049535146799   14.18895627354589
C         4.11166841872550    9.03810110536681   14.72205665479439
H         4.17087631563528    9.88162639474704   14.03312342467419
H         4.42965214039052    9.36189977652834   15.71156667280495
H         3.07952830301841    8.68953762467619   14.78442860984545
C         4.93701205847959    6.77204252311979   15.24602868468529
C         4.21649137514493    5.61239607182111   15.00351990855687
H         3.71455090320496    5.50689622447259   14.05373962508845
C         4.15305195669044    4.60702906597428   15.95190773099755
H         3.59905809892822    3.70280075894991   15.74266111325476
C         4.79789471795170    4.75598023630598   17.16675162927865
H         4.74929104643975    3.97264030175232   17.90893693825151
C         5.51103028597470    5.91521579665524   17.42421278620835
H         6.01907050913867    6.03796680923514   18.36978580911186
C         5.58220231581698    6.91316617195814   16.47022847230457
H         6.15578380904674    7.80711740397714   16.67138442902695
C         0.17281595740250   11.11077279787100   12.01542615894826
H        -0.23308359788350   11.43651548871295   11.06304182328173
H        -0.51272826964492   11.44150225688559   12.78977840313205
H         0.18499581649558   10.02679165434639   12.01492155327292
C         1.84088953567593   13.53450980836261   11.42651524160430
H         2.75018614747763   14.10492916795201   11.57145203269629
H         1.01677538652206   14.12968624143296   11.80824056274493
H         1.69396202413424   13.42251047237485   10.35662993138729
C         2.05821123553839   12.19388612459988   14.18823136856409
H         2.03648819245023   11.27879827311401   14.77205829718195
H         1.24323312281365   12.82558907873108   14.52867999403305
H         2.98561921944755   12.70636337654840   14.41733194982850
C         6.10253024020069   10.13826414776148   11.45911468916643
H         6.57160080725523   10.13588767935929   12.43778272209626
H         6.87696157359616   10.35394190437875   10.72927179858919
H         5.72891084522323    9.13831081173416   11.27027315565853
C         5.31845226176778   12.82788657278982   12.53629775836726
H         4.65991668311637   13.68775354539861   12.52090391614428
H         6.30832338542114   13.16854325524268   12.24779704192115
H         5.37898458921678   12.48278862863815   13.56394474420004
C         4.74874434067257   12.16134335778165    9.58498886183671
H         4.49346809020208   11.41001746634142    8.84399404622933
H         5.73411208949483   12.54734247242271    9.34182662354446
H         4.04356331661966   12.97786139569893    9.47970356814440

