123
CSD_code = UZOREH | q = 0 | S = 0 | Stoichiometry = C43H73NP2RuSi3 | MND = 4
Ru        3.13329029473332    0.71099772444237    7.43481720882292
P         1.63675465783879    1.70486342990690    5.98005418690069
P         5.01503894975281    1.94276169210209    7.00200259951339
Si        2.62151678677403    2.56304317576766    8.79660814490869
Si        1.50096161455129   -0.92089323740604   10.13435514648145
Si        3.04568292827271   -2.31742702411681    7.96089518198412
N         2.39718544327476   -0.87353923811389    8.64942101738503
C         2.56337400396207    2.79420380907161   10.71214312799121
H         2.38223558031177    3.83319507301953   10.95994205287145
H         3.50029584770190    2.51551013372923   11.17711336294555
H         1.77655982141017    2.19692743142390   11.14934494677685
C         2.68347775977768   -0.59865722354524   11.60866445803047
H         3.24158482177439   -1.49954093633962   11.84859835138625
H         2.13097956621997   -0.31131015512613   12.49759049811005
H         3.40074043234529    0.18617272759581   11.39728735431899
C         0.71994301771772   -2.62231054177512   10.51915531451022
H         1.47067937405328   -3.40002918657919   10.60958551843441
H         0.01579677927872   -2.93072649643171    9.75428054224034
H         0.18128074858293   -2.57841266587295   11.46071584077255
C         0.02043164424183    0.28500407850812   10.05854439134284
H         0.18809614809958    1.09669671175258    9.36012490794481
H        -0.17799516399830    0.71955178426277   11.03261752109884
H        -0.87949983315332   -0.23849237350682    9.75024941291580
C         1.79235377983839   -3.69290076663246    7.50458244664294
H         0.79275753269222   -3.30603512138482    7.33926616771963
H         1.72803366287635   -4.41814973067660    8.30788313714603
H         2.09601506734694   -4.22893556564427    6.60910051911420
C         4.34659862330803   -3.21495264034901    9.04322562009387
H         5.15418636725729   -2.57394363400115    9.37965062859307
H         4.78770655413772   -4.04859976607433    8.50456805438593
H         3.86229944626573   -3.61551623133135    9.92764570154244
C         3.87381121301854   -1.76019873663682    6.31278467831538
H         3.76750488687014   -0.66401466741552    6.16861475263144
H         3.41535259465433   -2.24528538843257    5.45523565124814
H         4.93263215655636   -2.00188389700776    6.28319500732642
C         0.92672916438273    3.21792110600202    8.17190215097098
C         0.47773462711873    2.75822251750970    6.93166880015214
C        -0.79177417525814    3.10680293789551    6.48105840051789
H        -1.17527255069740    2.73144232441074    5.54413300388217
C        -1.60539055642952    3.92707206825999    7.24333132927168
H        -2.59154760899259    4.18775286056505    6.88559719388561
C        -1.15785153734338    4.40235110616130    8.46334148949630
H        -1.79197247794836    5.04212800519440    9.06052785903843
C         0.09628179462123    4.03798189576956    8.92059203327796
H         0.42891141759057    4.38590816700821    9.88585782844222
C         3.82644930211342    4.00611908023386    8.33512921085185
C         4.92994359827982    3.68791242786012    7.53983492748055
C         5.85303484133579    4.66664365486263    7.19219461019100
H         6.70662814585204    4.43153453220936    6.57532601125971
C         5.67913986700720    5.96900247641867    7.62788023621121
H         6.39918904562035    6.72752007519416    7.35498998091986
C         4.58168933704003    6.29746220297259    8.40456457065512
H         4.44019042780941    7.31685217714484    8.73456576687259
C         3.66765618235981    5.31788400102393    8.75428461285914
H         2.80895948002571    5.58016880588261    9.35375137429478
C         0.46245316884334    0.49315361283882    5.18105920977628
H        -0.35069525932208    1.05440799239502    4.70789866464909
C         1.16087575391004   -0.34824788134681    4.11643805237096
H         1.99113019997943   -0.88641163523543    4.57579707759532
H         1.56746936579551    0.29067888450593    3.32813593643565
C         0.18253354870160   -1.35276568422343    3.51283545929529
H        -0.63228617467743   -0.81602941520810    3.01924168922595
H         0.68952187643210   -1.95584211462569    2.75575661919619
C        -0.38899458785912   -2.25509934343690    4.60157863964929
H         0.42311839457334   -2.82642101103318    5.05390215266707
H        -1.09631542322820   -2.96416634694568    4.16527265666137
C        -1.08207268763078   -1.42278937205061    5.67697012701521
H        -1.46069805583142   -2.07547159079513    6.46662136966440
H        -1.93943516216847   -0.90672972956358    5.23538889850869
C        -0.12404366027169   -0.39562707660598    6.27264460026806
H        -0.64826117343776    0.22414210860886    7.00503272258247
H         0.69268841872109   -0.90100369889560    6.79872874654041
C         2.03107808884965    2.84325424883254    4.52521892826541
H         2.78769972655274    2.30286176074657    3.93984151143147
C         2.67412107104193    4.10701214532296    5.08611847379601
H         1.93234277698757    4.66696337843281    5.66119177591696
H         3.47197238301498    3.82094333866427    5.77438619344923
C         3.22489008792509    4.98607489778437    3.96912633780119
H         3.67583462606202    5.88420389055604    4.39594335390426
H         4.00481617190061    4.44384964435847    3.42791434616775
C         2.10949211232981    5.36304110969225    2.99965066997604
H         1.36577840399354    5.96642214229732    3.52446377545319
H         2.50918874273232    5.96173067041003    2.17833460980570
C         1.44365603508318    4.10527448019385    2.45138394237643
H         2.17356729749801    3.52901134858544    1.87688427037874
H         0.63038858060633    4.37994566471341    1.77572273928139
C         0.89294347702777    3.24051266517858    3.58654529116532
H         0.40709533585814    2.36471867932421    3.15462852100705
H         0.15066026138182    3.81869358027994    4.13771118988221
C         5.90207156549869    2.06490420527566    5.33915337001334
H         5.53824708811070    3.01802938789577    4.92838382262136
C         5.41303113094278    0.94573859162757    4.41822611833515
H         5.81453387646638   -0.01234175656145    4.75674581762247
H         4.32013537872794    0.88700013672924    4.46250448698108
C         5.87167359285601    1.19843604070908    2.98584786964885
H         5.51592860358684    0.39879541590524    2.33221029625546
H         5.44445988649990    2.13868654759814    2.62768026811019
C         7.39451160517773    1.27906001509563    2.92818653841808
H         7.71990680440066    1.50273428617824    1.91010729635605
H         7.81752518961678    0.31110796749111    3.20781689294385
C         7.90967374339529    2.34968899663365    3.88549455340177
H         7.54909391160010    3.32953138182402    3.56245798639717
H         9.00167164718130    2.37185104096917    3.86278328374598
C         7.43128855363010    2.07973885575174    5.31275279363106
H         7.83860703772634    2.84356444604472    5.97646650306994
H         7.82220240370173    1.11431260317235    5.63910137481407
C         6.34920205539382    1.34544940888201    8.17139907137582
H         7.27912018895395    1.89351786360714    7.97936434283715
C         6.54380716654207   -0.15459263947711    7.98138264476699
H         5.57162163431073   -0.63519572806870    8.16133931421336
H         6.85396521297684   -0.38194496539531    6.95795627716261
C         7.56947460464358   -0.70799083122980    8.96571947111703
H         7.68512996309529   -1.78421085928327    8.81470078133644
H         8.54011720723910   -0.23994167388296    8.77898428059818
C         7.13858997095784   -0.42594455613746   10.40182797406459
H         6.20479777455076   -0.95232065474581   10.61311265418607
H         7.89560783245675   -0.79370841301409   11.09792971879224
C         6.91906333625290    1.06948703374544   10.60339844773913
H         7.86483131723363    1.60079220415549   10.46678236338701
H         6.57394577077575    1.26066553868605   11.62164289894982
C         5.89261184130110    1.59570236988549    9.60507567811402
H         5.72505758117153    2.66244609866920    9.76863865667739
H         4.93608936866104    1.07330532764000    9.75016275713670

