115
CSD_code = UZOROR | q = 0 | S = 0 | Stoichiometry = C45H65NP2RuSi | MND = 4
Ru        0.77100516576946    2.85200181314072    3.26822716385771
P        -0.62831844220790    4.17070446321254    1.99489341752448
P        -0.72752561069749    2.03448905766711    4.77882324608538
Si        0.79078076195642    4.69243006724812    4.71255985550867
N         2.71079635916911    2.70714114989670    3.31977146622477
H         3.29129524952144    3.34424750900629    3.86511900013516
C         2.25155521427853    5.32976209845431    5.80100161528190
H         2.73168272067801    4.52470097356835    6.34402508557560
H         1.89977502806414    6.04730907117461    6.53178328347288
H         2.99846466201089    5.81650442481645    5.18473608851401
C         3.48635913938721    1.82070300115702    2.62264318930954
C         4.89996849413865    1.88320537821409    2.66386651686488
C         5.64090493858040    0.99328052825435    1.90973861219139
H         6.72025696031876    1.05074880994383    1.94080270683995
C         5.03291813227029    0.03582898999849    1.11383424463876
H         5.63170663461755   -0.64524736312342    0.52830366252993
C         3.65321704468697   -0.04197694387857    1.07957233872314
H         3.16836592581611   -0.79074038998485    0.46754578634269
C         2.87625412863380    0.82660068866207    1.82576720987562
C         5.59300159874113    2.91515666151402    3.50904105548679
H         5.33027740849906    3.92609791164702    3.19017820627572
H         6.67135679820238    2.80445596360261    3.42466728711948
H         5.32388539712234    2.80963315679386    4.56212477435892
C         1.38483179451827    0.70222559625001    1.81823191562191
H         0.88785287376796    1.70986733101840    1.87132211808172
H         1.04540779238154    0.09040573169859    2.66202139229800
H         1.04232780925978    0.21309671806938    0.90490840729134
C         0.28457230756298    6.19457164673884    3.63430628492541
C        -0.30227664142602    5.93145501372094    2.39458896577912
C        -0.60057261314362    6.98447250752424    1.53505823095101
H        -1.01725262637047    6.80595030467910    0.55496941210573
C        -0.34369942968895    8.29120950227648    1.91193607988046
H        -0.57685169865415    9.10091459622202    1.23449985286184
C         0.21766181151105    8.55763564708510    3.14852570763993
H         0.41794091199003    9.57805730334316    3.44368409589530
C         0.53581628788093    7.50936591984565    3.99371872609172
H         0.99821968227912    7.71597466228719    4.94694148283834
C        -0.69414942324924    4.52279724277512    5.92327479297192
C        -1.38650901428126    3.30900732960836    5.91265309145968
C        -2.49149899912849    3.12717455314570    6.73517178070750
H        -3.03964573458010    2.19753457887645    6.72987945245388
C        -2.91376950658264    4.15045922861264    7.56672409983967
H        -3.77589441689712    4.00527900112558    8.20253589369680
C        -2.23434053688515    5.35607887451982    7.58171883588811
H        -2.56739149177918    6.15558345118904    8.22839359564694
C        -1.13206941595180    5.53436140896074    6.76254564089630
H        -0.60833909397907    6.47904756498441    6.76982160904361
C        -0.11027327594555    4.13523844658856    0.19650322106818
H        -0.55880884348166    4.99386419819207   -0.31570929713627
C         1.41012753990911    4.29100457891099    0.15675671404745
H         1.68446972118607    5.24456575435565    0.62007160245900
H         1.88306413324276    3.49268409746087    0.74526669560325
C         1.93616251138109    4.22772685150239   -1.27273883358960
H         1.54397719371223    5.07355440284556   -1.84375698502284
H         3.02562822019312    4.30307243512971   -1.26866683517757
C         1.50491547487046    2.92447786751005   -1.93806420891903
H         1.88254986485981    2.88417382312716   -2.96189846864352
H         1.93284873938763    2.08094455594795   -1.39056100559235
C        -0.01680962049812    2.81526772695692   -1.94017791709410
H        -0.32596657386439    1.88483153831586   -2.42243144816692
H        -0.43647582337523    3.64410915593491   -2.51639111335913
C        -0.56099693806077    2.86001355362101   -0.51397384171273
H        -0.20252970507455    1.98333176064116    0.02757621663021
H        -1.65250965313983    2.80836915787039   -0.53517696652593
C        -2.50760154908742    4.17556626035893    1.85552929933589
H        -2.76618610754942    3.12038982929410    1.68060624930770
C        -3.18910198526316    5.01944697507580    0.78074669477005
H        -3.00616615998636    6.07683433655096    0.97361483906742
H        -2.81760420729922    4.77591072497390   -0.21605062401468
C        -4.69762692266181    4.77208537405480    0.82778477480439
H        -5.18928195007377    5.36104628537425    0.04986268080152
H        -4.90075484283078    3.71712756580708    0.62508675059133
C        -5.26353136424016    5.14509431484739    2.19472419609901
H        -6.33772255032422    4.94862926022543    2.21966181683293
H        -5.11402468337906    6.21324820097334    2.36749636262428
C        -4.55927857402512    4.35599332929704    3.29451413638908
H        -4.93156181146803    4.66009274061610    4.27509196808757
H        -4.77554538347868    3.29148441922979    3.16934959075796
C        -3.05380383890978    4.58146154231846    3.22125454472487
H        -2.54090828290548    4.00606628800361    3.99724504315105
H        -2.83091795725311    5.63690725422871    3.40060700916752
C        -2.25171393869315    1.00493059636386    4.34557661146247
H        -3.05648890788770    1.75345015749916    4.30309159995173
C        -2.07040894414889    0.43932443891998    2.93527687685892
H        -1.69879490203153    1.22911042222782    2.27138928950609
H        -1.32783590232795   -0.36276826732912    2.95375178452870
C        -3.38896984965266   -0.11936256657851    2.41252699592774
H        -4.12900719701438    0.68347650168703    2.36114373288507
H        -3.25578241807037   -0.51629724479504    1.40335266220430
C        -3.89653303184534   -1.21856877550390    3.34171938325558
H        -3.19453261257538   -2.05604985724383    3.32645009773667
H        -4.86290179043189   -1.58821881989683    2.99224506098802
C        -4.02583665639431   -0.69562535443100    4.76935402132407
H        -4.35239750109559   -1.50210406859518    5.43003707900338
H        -4.78552954640954    0.08956803746352    4.80070673117311
C        -2.69455465363422   -0.13105447112696    5.26807348290641
H        -1.94928016963368   -0.92876301547143    5.26698133581754
H        -2.81506130256250    0.20848427416586    6.29776221933199
C         0.14483132804638    0.97925910752513    6.06519437818867
H        -0.61347350449563    0.57903453582282    6.74858255778868
C         1.13179505614348    1.83285977383836    6.85524430231322
H         1.85079943106493    2.26499413532695    6.15144669245004
H         0.61227512857526    2.65586281492962    7.34958245206985
C         1.86904813262828    0.99052427817422    7.89301954175531
H         2.57502316619118    1.61904713267977    8.44008383775956
H         1.14978277072583    0.59342206908079    8.61403080618231
C         2.60828540051772   -0.16555764947654    7.22687010303164
H         3.37432167491936    0.23197753784151    6.55681164931324
H         3.10760403534993   -0.77723215266253    7.98131930543466
C         1.63288905926183   -1.01767881837215    6.42256621246484
H         0.90057088897263   -1.47043351182853    7.09642773294688
H         2.16930134192706   -1.82551031978891    5.91875765216258
C         0.91210100935309   -0.15433437212159    5.39228077133245
H         1.65939189005622    0.29619893110573    4.72729535006946
H         0.24047338261274   -0.77654282172399    4.79413755081703

