128
CSD_code = UZOVUC | q = 0 | S = 0 | Stoichiometry = C65H56IOP4Re | MND = 6
Re        2.74979245964854    4.40138967574031    6.67120693552489
I         0.04143156831790    5.02116501220728    6.68438141978058
P         2.02258392639154    2.74757790826550    8.26107470169206
P         2.65870334819470    5.34985128228295    8.88453293039446
P         3.27227257070856    6.15886711975632    5.11924587270420
P         2.88250314022705    3.50426169147642    4.37459343490369
O         6.83007940774083    5.35309915677417    7.66548299177840
H         5.99894311350403    5.36695836745173    8.15548219195520
C         4.61784651359839    3.81079753401106    6.79687390887310
C         5.80274331040051    3.28443635965633    6.89455820334013
H         5.96951310047866    2.25219729490501    6.60053748585541
C         7.08104468244535    4.00934558806403    7.29208053048069
C         1.73745926607078    3.92679575046754    9.67527113925262
H         2.13265167457620    3.62043474496190   10.64612165422994
H         0.67161834209120    4.17377339970640    9.74655114664872
C         7.80047798114566    3.30915676794190    8.43848530722040
C         8.92283259475311    3.93978948135425    8.96455422393781
H         9.23579140493895    4.88071070137647    8.53662892723218
C         9.61622065043619    3.37878039874760   10.01954780977506
H        10.48653146995609    3.87929402439493   10.41920478828363
C         9.19834986026898    2.17455354962786   10.56296240500291
H         9.74023248823765    1.73246105620210   11.38677953764069
C         8.07996825383694    1.54389749817518   10.04751968290820
H         7.74004416006326    0.60823914019399   10.46939797446319
C         7.38109904772643    2.10867727908459    8.99301087470397
H         6.49980311060886    1.60976708527981    8.61820820924331
C         3.70330102902992    5.03692555467570    3.69494457664435
H         4.79034656517196    4.91087156941659    3.69188677903762
H         3.34155687086308    5.35544007887615    2.71376935424841
C         7.93284767715735    4.00560255763204    6.03562224430680
C         7.81598658019775    5.04842057041185    5.12588540993318
H         7.17233936779296    5.87916639184901    5.36871015414434
C         8.51905915469505    5.02166390362534    3.93572466090987
H         8.42054486763981    5.84143416500936    3.23769372988410
C         9.34398466617084    3.94979005353216    3.63824176817251
H         9.89386192410721    3.92756684392088    2.70832719356655
C         9.46163480007072    2.90607825913802    4.54089793668051
H        10.10681595206503    2.06813002167836    4.31618925749356
C         8.75814571037610    2.92977578035226    5.73210374074828
H         8.85242051853378    2.11046575991579    6.43123794732517
C         0.51553068366139    1.75445469198342    8.06926327654372
C        -0.35316944534014    1.46415601032839    9.11171637393048
H        -0.16396329110927    1.84936571701076   10.10479321666567
C        -1.46888357455542    0.68494352867007    8.86416426245946
H        -2.15605518258168    0.46264982323529    9.66782789780744
C        -1.71267183525171    0.19566211264583    7.59099249070375
H        -2.59216119199206   -0.40340774393534    7.40602034304364
C        -0.83809242829231    0.47711873152444    6.55325819699862
H        -1.03250884702045    0.09965666217910    5.55951358943672
C         0.27686504265781    1.25397668887829    6.79502770003221
H         0.97195747787398    1.50697388471269    5.99940884092783
C         3.11939229452883    1.41885891095366    8.84724234555470
C         3.26945643712773    1.00515380431044   10.16416859483967
H         2.73925060389727    1.50270379474884   10.96495257038827
C         4.10960312132835   -0.05561143126152   10.45457277617653
H         4.23546087453814   -0.37257278203616   11.48004248090958
C         4.78485047392784   -0.71347891042603    9.43937409961453
H         5.43912132374766   -1.54003276865232    9.67562221633889
C         4.62210924758167   -0.31320615125867    8.12183842366655
H         5.14572768171590   -0.82488827329264    7.32661350016295
C         3.79266994199435    0.75136432586040    7.82809172959236
H         3.66514975966738    1.09711025265737    6.80807932533038
C         1.73870174152786    6.85284973156066    9.30616992164790
C         1.17616439483322    7.03620865592219   10.56392825138596
H         1.28560728312518    6.27053635476865   11.32126317028260
C         0.48247683790786    8.20100479176119   10.83275751222308
H         0.03691969375876    8.34823426939827   11.80608310611802
C         0.35176560490648    9.17662425581319    9.85611750164817
H        -0.19951334647536   10.07997944127004   10.07211270134486
C         0.91713255106945    8.99544250685364    8.60445974073557
H         0.80769326564599    9.75101218746171    7.84052128894357
C         1.61115910270223    7.83308263457177    8.33025743226880
H         2.04348139859585    7.66436285446331    7.34802685247420
C         4.13269027702481    5.50377958583317    9.93518314583568
C         4.85611868937826    4.35430594559333   10.24464679430456
H         4.51057427380795    3.39353910900836    9.88227773591498
C         6.01315919288598    4.44427209684899   10.99427827134182
H         6.55954017956410    3.54922056115932   11.25037290096023
C         6.47762335958907    5.68408471253531   11.40382008669298
H         7.38801362501315    5.75240029505448   11.98012170357548
C         5.78137878549823    6.83290992360459   11.06666194449509
H         6.14912521230087    7.80007723627676   11.37739696995353
C         4.61022978979153    6.74838389418853   10.33571653258726
H         4.06068741069134    7.64529471375261   10.08142455851933
C         2.03805934307458    7.27886657983978    4.40282383853043
C         2.03322170278213    8.63415825392794    4.71975009015084
H         2.82662261285946    9.04969183887066    5.32841217824999
C         1.02039089583361    9.44627493811631    4.24497748154486
H         1.02152038004830   10.49988629471377    4.48590816073135
C         0.00385228327275    8.91253744561838    3.46971834616104
H        -0.78909552769684    9.55017809435666    3.10770022221102
C        -0.00285289634885    7.56050792085361    3.16770817229117
H        -0.80210792823527    7.13844099611646    2.57680303587194
C         1.00650968288598    6.74333463071810    3.63715607331634
H         0.98860700238380    5.68188562328169    3.42199054432698
C         4.70065482254983    7.25310028567527    5.32771660737785
C         5.10840101672726    7.55327372574096    6.62033688592124
H         4.56434677200326    7.11971358277686    7.45411033717041
C         6.19830070101356    8.37687103527052    6.83064459556415
H         6.52167566731106    8.59860653542925    7.83647302434022
C         6.88157509711923    8.89804923657996    5.74447216051770
H         7.74177278957483    9.53196485470086    5.90238383754880
C         6.47080377893252    8.60710705843943    4.45150857637623
H         7.00826365428624    9.01935460429202    3.60936623699481
C         5.37880212426685    7.78764805609629    4.23723595502288
H         5.04815288340217    7.55854504331281    3.23249129090016
C         1.62311590589989    3.13659852786151    3.10330955720852
C         0.28157806821816    2.97263569642292    3.41986382991777
H        -0.05631903852909    3.07577690185975    4.43992821639985
C        -0.63474368312413    2.69628779083818    2.41892525093463
H        -1.67798491153332    2.57763205564439    2.67125530036722
C        -0.21430385394196    2.57930896431103    1.10617613756383
H        -0.92974886639854    2.36621273010157    0.32539717433597
C         1.12789050383271    2.73352891062553    0.78888700786052
H         1.45606064809389    2.63667858441611   -0.23620402782437
C         2.04632736731623    3.00895578400388    1.78173109421592
H         3.09729466714892    3.11842336900706    1.54434905083245
C         4.01336083119314    2.11204257588921    4.05470046339611
C         3.44506868013153    0.83830236259034    4.06320481382929
H         2.37040866222372    0.73580430035480    4.15494153361946
C         4.23899059540901   -0.28571137320189    3.94724305645377
H         3.78739954368319   -1.26753411117748    3.95531170188943
C         5.61330020711794   -0.15080154989930    3.82446281188929
H         6.23701735141305   -1.02832780169818    3.73438178313671
C         6.18487287440645    1.11021595612668    3.82101274562319
H         7.25575319228994    1.22450329667214    3.73364958766953
C         5.39316793284462    2.23896606853141    3.94510627224652
H         5.86696484275849    3.20933831133831    3.96596757198200

