58
CSD_code = UZOWAJ | q = 0 | S = 0 | Stoichiometry = C19H33IrO3P2 | MND = 6
C         6.30081104543088   -0.63216684690662    3.35251185400347
C         5.56072145818075   -0.72826426343447    2.17930515903244
C         4.86284055480877   -1.87163696347646    1.83054486262835
H         4.30110989167662   -1.90137785878157    0.90976304599102
C         4.90419893355478   -2.96464306999522    2.68149438365996
H         4.36501456050976   -3.86284236822239    2.42359516839294
C         5.63246460758797   -2.91612658881415    3.85930648781432
H         5.67207618116727   -3.76247818183030    4.52742409937880
C         6.31773703230296   -1.75483376757573    4.17307801047050
C         7.43585668340352   -0.06545695914293    7.37789559139602
H         7.62124262038113   -1.03324174206341    7.86424235562178
C         5.95053545929339    0.25832822608504    7.46930936174286
H         5.63403723834362    0.29734513151076    8.51049162655180
H         5.35981740558705   -0.49843695596787    6.95595382148947
H         5.74718178769651    1.22222686037840    7.00801227428400
C         8.27437189092454    1.02374336982292    8.03109345258977
H         8.22637351776034    1.93756054948394    7.43995615378483
H         9.31479751009228    0.72214727268644    8.12846014390460
H         7.89219045643429    1.24159319899321    9.02750538041644
C         9.63711657480663   -1.01097592649961    5.73520136047676
H         9.73310687471828   -1.45085526801719    6.73616283629367
C         9.84026706406343   -2.09320646478678    4.68130617615381
H         9.61947412952464   -1.69365987422271    3.69223653881001
H         9.18732017129433   -2.94418079521762    4.86249430495822
H        10.87224375974206   -2.44003483445906    4.69141534809168
C        10.65985062787117    0.10390930852796    5.55496935373935
H        11.66730754219821   -0.27729829447318    5.71514318534412
H        10.48666723022380    0.92576855589595    6.24577197588241
H        10.59598515012622    0.49763261577761    4.54285488154423
C         4.98850122893492    2.96266950533614    1.75811749268899
H         4.71945859977178    3.08363121664814    0.70322220110030
C         3.77496684210957    2.45227565420124    2.52567230410578
H         4.04884785713885    2.23011576246509    3.55559455274679
H         3.38193127492903    1.54486724477549    2.07175518562596
H         2.98830455087622    3.20500408476135    2.53084829220489
C         5.48192039256469    4.28249375546155    2.33416913174304
H         4.68585656183099    5.02542648394125    2.31667961851717
H         6.32701747000427    4.67214057053883    1.77170076419924
H         5.79783485667037    4.13802569946783    3.36611174246145
C         7.41904576579987    1.95111133437493    0.34506785121600
H         7.95761892472005    0.99388865647978    0.29503611147981
C         6.61395818743661    2.12482396495828   -0.93720564236055
H         6.19014072361329    3.12486822386367   -1.00178587194975
H         5.80921546063193    1.39365200420410   -0.98455332111507
H         7.26053762883771    1.97990796210912   -1.80126321928112
C         8.43858359599508    3.06357195086728    0.54111588605739
H         9.20257637165482    3.01264435233795   -0.23306503781084
H         8.92239056859363    2.96486392999004    1.51162024864741
H         7.96877483400684    4.04303117041963    0.48467603726713
C         8.29590164838016    2.62134486871091    4.30612843426241
O         7.05007418912405   -1.68291821999690    5.35589289847226
O         5.53777389188382    0.38089499951609    1.33509729966086
O         8.87842896036702    3.56776436436821    4.61368330940215
P         7.90106347940090   -0.32864663047298    5.59523883549150
P         6.34439043209657    1.68756586634315    1.84643092893819
Ir        7.33658177599124    1.06888228218114    3.84023093482036
H         6.07424541582820    1.53599867031876    4.62479217201027
H         8.51954055113289    0.48296220651828    3.00219166496159

