84
CSD_code = UZOWIR | q = 1 | S = 0 | Stoichiometry = C30H49IrNOP2(1+) | MND = 6
Ir       -1.21011155471758    6.56950208260592   13.52302300063180
P        -2.11182288593000    6.30568473360964   15.75981861783549
P         0.48500185048780    6.59992807973384   11.78746480896005
C         0.31978874612908    7.48442306040139   14.59157530805130
C         1.62091667336772    7.86724464725701   12.46986077211461
H         2.64757749659064    7.70450440667643   12.13371122470132
H         1.29646693033259    8.84109083690655   12.08381294012660
C         1.56673879119778    5.03383036851841   11.73874439879773
C         0.12251098317013    7.20850992039441   10.02286431084460
C        -1.12240570847557    7.56395173227923   16.65406679791912
H        -1.67305389991011    8.51104496370693   16.60404520185220
H        -1.00705176719350    7.30460401703015   17.70903396580428
C         0.20341327345805    7.75627784271188   15.96393376863475
C        -1.44115631061237    9.75115331493761   13.60985242071905
H        -0.53806735481375    9.60787118041810   14.18635444229758
O        -3.39187634078642    5.08896801186780   11.98186613018643
N        -2.03067989269319    8.65194283820844   13.14244279595425
C        -2.59828446752648    5.68956653487208   12.54835432610229
C        -1.60639538265674    4.67814322620474   16.60888659195271
C         2.55651731830867    8.44860759963201   14.70091510090110
H         3.46331382163788    8.74514174946890   14.19332575174719
C         2.27014139839797    4.91464070738295   13.09339426835045
H         3.03967375732165    5.67154811074500   13.21625814648391
H         2.74816414962898    3.93977332433677   13.16397293945866
H         1.56970148571502    5.00414544668576   13.91827627863433
C        -3.14614639135873    8.82010983444856   12.42838179972980
H        -3.62625045207237    7.92942003719146   12.04732138596286
C         1.50928574265109    7.89955648262458   13.97237502605466
C         2.44462106298820    8.62322434174526   16.06689081885474
H         3.26637850364460    9.02951342978212   16.63499131237381
C        -0.07832305820527    4.65891021547814   16.70161724368279
H         0.38439804292634    4.87494075462099   15.74339445970197
H         0.24864680993366    3.67000372979647   17.01623300725933
H         0.29085847463069    5.37744091716315   17.42794206771904
C        -3.08369264191378   11.19363577459906   12.65132751162837
H        -3.49012466228918   12.17462433601023   12.46213667801218
C         0.68041507231234    3.80621125641269   11.52456560925404
H        -0.08929061409727    3.74318579626791   12.29079791016418
H         1.28842006120176    2.90558268699521   11.58153268084398
H         0.19695001299092    3.81993732783025   10.55296238671639
C        -3.70435797295218   10.05625940652393   12.16000142273014
H        -4.60845377839423   10.12064635704211   11.57672553302196
C        -1.92528115443857   11.02978344443818   13.39225687057214
H        -1.39719663011328   11.87667123265362   13.80013182103471
C         1.25247121765063    8.30613907708688   16.68915310443536
H         1.13231988074754    8.49065363547067   17.74716749203008
C         2.64866261290913    5.07096848854069   10.66001787783634
H         2.23524712820266    4.98569477608796    9.65974061882087
H         3.31095547097353    4.21926733692797   10.80839177439831
H         3.25722198462136    5.96989130759248   10.72743406124727
C        -2.07154502124918    3.49305244612205   15.76175254922682
H        -3.15387761843712    3.43413510352902   15.70667274739325
H        -1.70945084401153    2.56704290944847   16.20388595014067
H        -1.67883916788470    3.56018405312104   14.74941211615275
C        -0.48717516163789    6.07633765395808    9.19752865581842
H         0.25684542173800    5.34185917842637    8.90435058937338
H        -0.92280414870313    6.48280978969001    8.28602170129085
H        -1.27806597996780    5.57533609408327    9.75499664714331
C        -4.11030785542741    7.18163534409978   17.64072711485423
H        -3.88321554842999    6.39690477974993   18.35154753904508
H        -5.15637039553123    7.45271912368702   17.77804649040781
H        -3.51157929534369    8.05654318329468   17.88164255506202
C        -0.92948059645320    8.31143058298868   10.15619191700474
H        -1.87292676280052    7.89685263811314   10.50056503668409
H        -1.10362174134814    8.77348104005033    9.18584891522197
H        -0.61110404581526    9.09523213418385   10.84233496036240
C        -3.91149177104235    6.74424101951069   16.18943136903721
C         1.33936890655125    7.80154585093471    9.31248484292721
H         1.75058983676321    8.64698420969714    9.85846247403873
H         1.02383362406851    8.16504178483390    8.33528688680110
H         2.12611263649795    7.07555813009728    9.14919706028580
C        -2.15528313879726    4.53208446856889   18.02770526054250
H        -1.91037199833507    5.39183948121995   18.64721736883675
H        -1.69269158508049    3.65956733124104   18.48679791749102
H        -3.22866350838610    4.36949550676104   18.03884957374107
C        -4.29530178066745    7.91848084136139   15.28684269592190
H        -3.59811221003495    8.74972043141025   15.38397461437705
H        -5.28408212310995    8.28413515105605   15.55888111568951
H        -4.33233557237911    7.60265523786869   14.24788879816570
C        -4.82843221988501    5.57088945528884   15.84711203995498
H        -4.60325070071483    5.18251498198128   14.85424713156688
H        -5.86505981545797    5.90441691750300   15.85137782705081
H        -4.74209966487888    4.76435660013464   16.56893366368053
H        -0.59346598678551    5.22774582605225   13.82773909155793

