35
CSD_code = UZUBOH | q = 0 | S = 0 | Stoichiometry = C14H12Cl4N4Os | MND = 6
Os       -0.00015879880572   12.02199433240160    0.00032353956116
Cl       -1.86752771482775   10.97750693105562    0.86653825982919
Cl        0.36358763910321   13.01070414131678    2.05457398769020
N         0.58535178697628    9.14880215014937    0.24408975559857
H        -0.31417820103500    9.08051995511958   -0.22210242874171
N         1.07020646471209   10.36003706623416    0.51871625709925
C         2.25579829567230   10.16522993497487    1.12513269424821
C         3.18302555883219   11.09378839860271    1.62162682709240
H         2.99243813811592   12.15226806831097    1.54561682130408
C         4.32289917696798   10.60132118498813    2.19777930028294
H         5.05775414324137   11.28773488842328    2.59000979363647
C         4.57350307339276    9.21753560668808    2.29792895750227
H         5.49138477562038    8.89125522190779    2.76321003471996
C         3.68591968537510    8.29293816213154    1.82222131288980
H         3.87285545993653    7.23300422684404    1.89641248342941
C         2.50359800507218    8.76085218682023    1.22360733360663
C         1.38760850657821    8.16160535979648    0.63658540297104
H         1.14333120919664    7.12910389157367    0.48980529202013
Cl        1.86715122946372   13.06618563676258   -0.86657190645873
Cl       -0.36307353437697   11.03310715348096   -2.05419585595195
N        -0.58532494238078   14.89525597509193   -0.24417261379787
H         0.31416213305404   14.96353654657604    0.22209697026716
N        -1.07014618882944   13.68401069232115   -0.51884705372669
C        -2.25575066251381   13.87881185956109   -1.12525895862311
C        -3.18301352841828   12.95024219789795   -1.62167846979878
H        -2.99242215712451   11.89176292821377   -1.54565160344527
C        -4.32290966421506   13.44269398122185   -2.19779891567599
H        -5.05777407991582   12.75627419629657   -2.59001007790083
C        -4.57352188490157   14.82648108640669   -2.29794905250101
H        -5.49141553421730   15.15275932780628   -2.76321239742623
C        -3.68593398873567   15.75108149517379   -1.82225199835805
H        -3.87288274602111   16.81101542176042   -1.89642616228862
C        -2.50357841730428   15.28318587559529   -1.22368888179315
C        -1.38760098383230   15.88244671502962   -0.63665275009537
H        -1.14336225385665   16.91494720346473   -0.48980589716601

