24
CSD_code = UZUHAA | q = 0 | S = 0 | Stoichiometry = C6H13OReS3 | MND = 5
Re        0.58088907498314    6.40233750127171    6.33109259439587
S        -0.30697209346419    8.31931985878826    7.23956999083065
S         1.42862178124125    5.92039100980691    8.81790501195610
S         2.81910385055264    6.56469665505454    5.83045786202974
O        -0.31342212736581    5.02602124831434    6.10558145943253
C        -0.40278459576148    7.96953038749831    9.03379138862214
H        -0.70994480196237    8.90212404946737    9.50976341720412
H        -1.18053463738806    7.21863075735733    9.17924680721849
C         0.92187061387845    7.50331021482140    9.60198480650376
H         0.83901474956734    7.31722359040712   10.67391866153107
H         1.70170325836141    8.24282205270051    9.41593299152838
C         3.22896559406224    6.17722063279450    8.55929302573976
H         3.43918000392364    7.24354187912617    8.64968694455550
H         3.74621184188066    5.63154195757609    9.35013198784018
C         3.64288338217924    5.66472951002604    7.19518814467874
H         3.40149186681020    4.60713886500021    7.08128184043897
H         4.71521394479068    5.80570835844149    7.04958290706727
C         0.14308066299323    7.15719215849133    4.34924509973603
H         0.54848352618418    8.17437542237490    4.31550237911482
H         0.68084138657300    6.54925275613941    3.61592827156269
C        -1.33763587686083    7.17861770838439    4.02474025692518
H        -1.74439987871466    6.17099408601711    4.08795416474378
H        -1.49530959089061    7.55442591230343    3.01387202889927
H        -1.87515193557276    7.82155342783722    4.71784795744533

