43
CSD_code = VAACAC | q = 0 | S = 0 | Stoichiometry = C15H21O6V | MND = 6
C         0.23774298808694    5.94916588491505    4.38600436318309
C         0.07596265224907    7.04994949000454    5.40690397109043
C        -0.70606555458388    5.72164406966769    3.40241752359936
C        -0.48426237996640    4.73247621123823    2.41240929404466
C        -1.56707845261195    4.49405027965183    1.37939332374451
C         1.33054556755643    1.34101498056384    4.14506496065359
C         0.43030463805599    0.37533492077700    4.88890639983657
C         2.30968931962643    0.81241126163610    3.26957223218322
C         3.12576262475688    1.65913772862447    2.54168157410402
C         4.21973069565460    1.12432604458452    1.64675459173925
C         4.59495169293485    4.68121241110336    4.82924232563545
C         5.64697384408379    4.41341189389536    5.89459200473418
C         4.86684929644544    5.71267140091248    3.92460245762653
C         4.03445791133864    6.09143356541197    2.86600527935020
C         4.49975080900763    7.26679729364259    2.01989829826431
H        -1.60887258606963    6.31061356222998    3.36559789583692
H        -0.13287739387423   -0.23284310937027    4.18411762812559
H         1.02698911920019   -0.28814329634607    5.51154471787642
H        -0.25987042296594    0.93368341714052    5.51657266928524
H         3.81965326360455    0.94591610937328    0.64888419793678
H         5.01366172881850    1.86467067792258    1.56772900388167
H         4.62033382484140    0.19149407529092    2.03211938229401
H         6.59924306818297    4.16989964751409    5.42912345949836
H         5.32566228170559    3.58378734867457    6.51936821439073
H         5.78466199848020    5.29803336989979    6.51213022447801
H         5.45536912088364    7.03548894889946    1.55506484296181
H         2.42726239158747   -0.25687937093851    3.19057753504068
H         3.76273307290256    7.47022291171885    1.24711012181820
H         4.62734050423790    8.14994642379473    2.64167187124915
H         5.78912935449344    6.26070834344308    4.05499163100978
H        -0.83631135420198    7.61360625007942    5.23942190229570
H         0.93431271762033    7.71934708270914    5.35229260826999
H         0.05712132707277    6.61592756926361    6.40624350748458
H        -1.76839459149685    5.41061300849417    0.82909809516838
H        -1.24371745065069    3.72170489279673    0.68627092457784
H        -2.48763802218511    4.17965435817878    1.86628599538090
O         1.29131976655229    5.23195268975160    4.44044093857564
O         0.56477011971375    4.05509923324652    2.34578079730212
O         1.18085888129738    2.56796040336675    4.33897303631169
O         2.96750309707999    2.92193103292356    2.61486795170594
O         3.57415626881948    3.95329548084387    4.84978518317449
O         2.94238870941337    5.56454064144778    2.54739892008336
V         2.03829555230101    4.02013086102441    3.51778814419562

