77
CSD_code = VABLOC | q = 0 | S = 0 | Stoichiometry = C34H37NO2P2Ru | MND = 6
Ru        2.79445434604269    2.37471078008911   11.34154159499017
P         4.57624086794097    2.54777245035261   12.70962911423710
P         1.43593205543794    2.52082883875203    9.54614279147954
N         4.36197846697161    2.44577387051892    9.80101060162894
H         4.53692519168033    3.45264444953721    9.68659663273128
O         0.76256889747482    2.34334588319579   13.53736249557576
C         4.79380446205980    4.07393010888555   13.68264555075943
C         5.60634684329761    1.83246633473539   10.26471331985293
H         6.39495564716549    1.91841314729738    9.49780938734938
H         5.41049656176885    0.76972796053345   10.44780797093803
C         6.05002382973308    2.50518704594451   11.56127546230402
H         6.37645098114121    3.52915454315170   11.35604415059452
H         6.87916991406967    1.95913830446550   12.01740492868341
C         2.78770604889748    4.39708899078658   11.19860782963338
C         1.53322534351654    2.35539375054438   12.67462137427501
C         5.05512173847670    1.31647150291991   13.96775428363638
C         3.89451602501426    1.93363458762059    8.51381907011761
H         3.67521112099459    0.86530589759149    8.63123000434775
H         4.67117919056951    2.05107998152080    7.73868435726315
C         4.23266829900485    4.07579199521372   14.95838473148558
H         3.79184180330765    3.16383514915615   15.34254347635850
C         0.29304519773698    1.21413721553454    8.97295904182666
C         4.19173028280083    0.26675609884978   14.25017667226595
H         3.25876836722350    0.20184207801152   13.70332084530250
C         0.05199879716777    0.13660450529037    9.81521609648753
H         0.57163107546303    0.09662928064040   10.76507172798235
C         2.62362150637613    2.67924218891820    8.11788147966001
H         2.20747420309910    2.27901318350747    7.19017077435531
H         2.85020165582705    3.74403732437401    7.98820233271851
C         4.53071502729053   -0.66880162068893   15.21266329428998
H         3.85772030022064   -1.48423421053966   15.43382838770168
C         0.32374719306601    3.95137218328067    9.34038284547859
C         5.30774754402592    5.25789900966946   13.16807708631081
H         5.70050121391140    5.30269219021094   12.16258495124671
C         4.77147167270675    6.39689369445152   15.21095484120445
H         4.76412119147823    7.30049298992164   15.80294433264218
O         3.95987728198887    7.63185213761339   10.70585475368287
H         4.32851733519052    7.17921428500819    9.94026304293452
C        -0.82997713192016   -0.85898642194670    9.43296350333280
H        -1.01516449156467   -1.69743482896500   10.08828978599485
C         6.25536654301073    1.43466998652149   14.66363513869474
H         6.91338536445629    2.27046159021547   14.46184835186747
C        -1.47618628014275   -0.77792558203426    8.21094617104767
H        -2.16352095023798   -1.55481140619606    7.90928281996735
C        -0.37357076818614    1.30333737674614    7.75443980618326
H        -0.21491545239457    2.15907537697826    7.11161257477983
C         5.30462096725150    6.41022619653901   13.93322360794724
H         5.70296725722981    7.32503481279519   13.51952015349045
C         4.22843942212736    5.22794836753242   15.72005311693559
H         3.79290377154336    5.21849733933078   16.70867350835470
C        -1.25014540413587    0.30493675079288    7.37466810770666
H        -1.76464355238170    0.37171687878492    6.42665525358340
C         6.59154312197740    0.49656403645820   15.62052176581277
H         7.52335147571430    0.58665442060190   16.16030858247456
C         2.73836720613077    5.59701083992733   11.07278102084739
C         5.73110457017001   -0.55649536394823   15.89372922593368
H         5.99756564427570   -1.28620067519956   16.64444459698566
C        -1.46417839114481    6.07546283696824    9.29719411599481
H        -2.15138045510237    6.90887348394778    9.27987925826364
C         0.79068607191438    7.17604020377536   12.65935423858174
H         0.08391564575569    7.47336736368463   11.88601707557084
H         0.47041903084804    7.60159605790196   13.60750398857686
H         0.77314919074527    6.09084024948899   12.73823030282326
C        -0.51017126774298    4.19462732737995   10.42838770835607
H        -0.43230035327353    3.54932671814191   11.29599666556228
C         2.68134463966551    7.05367978003471   10.98978279957408
H         1.97465426127364    7.33836934805805   10.18381655714473
C        -1.40021138455051    5.24963591052251   10.40873550262407
H        -2.03777091599233    5.43555835820124   11.26031583257742
C         2.19498470542161    7.64870671598725   12.31457149928010
H         2.22596290836251    8.73742226004125   12.23025990844628
H         2.89277432992222    7.34660656513620   13.09819299374081
C         0.24653673806759    4.77341385822832    8.22428032095845
H         0.87671160449935    4.60186351928185    7.36279667476729
C        -0.64381774993780    5.83406414562298    8.20926801366304
H        -0.69453684262139    6.47693804517502    7.34159511817441
H         2.90872944082011    0.82238945076676   11.26484269903264

