80
CSD_code = VABLUI | q = 0 | S = 0 | Stoichiometry = C31H42Cl2N4Pd | MND = 4
Pd       11.50679769869519    8.38951685368531   15.98497957387031
Cl       12.86938090829026    9.67433507238668   17.30299795306433
Cl       10.15440196507362    6.99169316379326   14.79273541548797
N         9.45280104537699   10.40684393636603   15.17597012331848
N        11.43191520486935   10.92849238500132   14.51187205963350
N        12.42696357924119    6.71941974658305   16.78754013398172
N        13.70578507833464    6.46191011337330   16.53852643426109
C        10.73074153782656    9.98624880263169   15.17205729809781
C        10.59895075080926   11.94698891263617   14.12143110534606
H        10.95301370328436   12.80152421837680   13.58301756707981
C         9.35531290297343   11.61703847577665   14.53507732654105
H         8.42384668197741   12.13541103303315   14.43975676262771
C         8.33364192568694    9.65744728435916   15.63626275600743
C         7.42331635643067    9.17103313659821   14.69085310931803
C         6.32107109744802    8.46506780888571   15.15208505440775
H         5.60620689407553    8.07504805152640   14.44472733553360
C         6.13147634818296    8.24013314048204   16.50136458018254
H         5.27052989379794    7.68228381456054   16.83917580676973
C         7.04673113330319    8.71788616918817   17.41724447252674
H         6.89423259088324    8.52821129622488   18.46847105654923
C         8.16260940203551    9.43619728843975   17.00501185371950
C         7.60929364985673    9.36804587064814   13.20384094792469
H         8.55942759368443    9.87606740065605   13.01781011041333
C         7.67660688950233    8.01793865051994   12.48726006615145
H         8.44540424408878    7.40037878567865   12.94513328302962
H         7.92137886685232    8.16752673226511   11.43764463128613
H         6.72812033049068    7.49127227958515   12.54560996545430
C         6.48516931422731   10.23598255522337   12.63111500689434
H         6.65389070081293   10.41231548175587   11.57102774234166
H         6.43836758543334   11.19860897913403   13.13721277093499
H         5.52209001563739    9.74556922150277   12.74727793549070
C         9.14704220861808    9.93949765524480   18.03625505930658
H         9.95458308744193   10.49348611960602   17.54178914323766
C         8.47338415464250   10.88734748165615   19.03023766180409
H         8.02099995626073   11.72913508961265   18.50934361877244
H         9.21191854393588   11.27086945325584   19.73021006131340
H         7.69716725295208   10.37791995099838   19.59574615648799
C         9.78381452665019    8.74285313488958   18.75228699671488
H         9.05635822203690    8.22116730914159   19.37067492824038
H        10.60629992286117    9.07867790323907   19.38131197139548
H        10.17495345261325    8.03990800871661   17.99721657022210
C        12.82616355123165   10.85153240646452   14.23110208433308
C        13.27798387315027    9.86704000438944   13.33615424351754
C        14.64205055563970    9.80172845541653   13.08230782279468
H        15.02636912588234    9.06089189564041   12.40041129914356
C        15.52191888535075   10.68146875674144   13.68549707071518
H        16.57939171095630   10.60891204643562   13.47760522197350
C        15.05218009604630   11.66221611402839   14.53400825689709
H        15.74725493477117   12.35509875704509   14.98039841737580
C        13.69751596281681   11.76897684233230   14.82426556565338
C        12.29605577760114    8.98547709256600   12.58711102582635
H        11.50027549496876    8.66091845040754   13.27188532425774
C        11.65916415825615    9.80464852574437   11.45753447427894
H        11.14864152124848   10.68536831044680   11.84045160760948
H        10.93416775619378    9.19493593070331   10.92378168288454
H        12.42379472647716   10.13177919590640   10.75451579500670
C        12.90960231151443    7.71368856820993   12.00243179533195
H        13.59028133699032    7.93497032184971   11.18278766529563
H        12.10979777367603    7.08569995288067   11.61742662987798
H        13.43806557079692    7.14501037167629   12.76385688571623
C        13.21172578430921   12.88083934175980   15.72410684202639
H        12.15945294051408   12.71112545466285   15.96831599283676
C        13.33599869116821   14.22285357248615   14.99445346667052
H        14.37953577407619   14.44600799371837   14.78538896484591
H        12.93028468970030   15.02174447018534   15.61097624576978
H        12.79874866516358   14.21078638397301   14.04793098037311
C        13.97869584936110   12.92020822118612   17.04619849735936
H        13.92477176908830   11.94708051161019   17.52619834774529
H        13.53259348480338   13.66123872123468   17.70585589121479
H        15.02207877991253   13.18347154268614   16.89581080075670
C        11.99296913520800    5.78328309768149   17.61638205150648
H        10.97199665563686    5.75981343095375   17.95131133854937
C        13.02915429061423    4.89612745112325   17.91327195071394
H        12.98806535657136    4.03681505012841   18.54943298545436
C        14.11108238167261    5.36869963781526   17.20412356362773
H        15.11501913513629    5.00217768657636   17.12945336835336
C        14.48132432166165    7.30671815377885   15.67318020862895
H        15.21952844732862    6.71063885505035   15.13727709947612
H        14.98455423673525    8.08892599576003   16.24963598179230
H        13.79694727070286    7.79618366132711   14.96060014818186

