81
CSD_code = VABTOH | q = 0 | S = 0 | Stoichiometry = C22H54CrP2Si2 | MND = 4
Cr       -0.91367106931310    3.91442197648171    4.24415056646471
P        -2.29944208592700    5.68881614725616    3.72555177006611
Si       -1.15639124150685    1.63521608509406    6.87869076042638
C        -0.10586620133577    2.67383766674548    5.70180612201016
C        -2.90217874225875    2.37543238090326    7.17922390543080
C        -0.32228359630905    1.51035026564569    8.60191920572055
C        -1.42122747390865   -0.16153953683627    6.26966652246973
C        -1.50823357026128    7.37630424998727    3.93006120701940
C        -3.87706817119730    5.94293565223296    4.71021777134181
C        -4.82658216791213    4.78086856756408    4.44319659036973
C        -3.48369585090146    5.98716848000819    6.18220087438325
C        -2.95421078417173    5.82524803320928    1.96919308055124
C        -3.66392257195738    7.12743924559680    1.61017981315754
C        -1.80289865975010    5.54148055250484    1.00827147912811
H         0.79949999175543    2.97888054745810    6.23665996525803
H         0.24044283653141    2.01714945512810    4.88102371347772
H        -2.86889902562630    3.24381464512907    7.83026928427751
H        -3.55221726648561    1.64484396020696    7.65172971948532
H        -3.36772550396456    2.67490965457198    6.24544444607494
H         0.64072472054013    1.01307006095216    8.54061612481116
H        -0.93836483091348    0.94512563577172    9.29406616227796
H        -0.15630362798898    2.49023602210302    9.03782403378536
H        -0.47612610785860   -0.68201194361621    6.14487771167597
H        -1.93290903713503   -0.18098050679944    5.31302441690034
H        -2.01804256878330   -0.73361945960452    6.97438228762706
H        -2.26627963187832    8.13013282168519    4.16125214632981
H        -1.06886330685391    7.62612079585982    2.96139775233480
H        -4.35523612580567    6.88918722919608    4.42999814205351
H        -5.27259506335587    4.85013349618292    3.45357118118731
H        -5.63308637088527    4.76952296094343    5.17479582736888
H        -4.28162340546070    3.83984646195114    4.51386494516642
H        -2.99094274384386    6.92550035136529    6.42541315778664
H        -2.79846368139839    5.16405193925365    6.39356080349930
H        -4.35977862139067    5.89177829446902    6.82148826855413
H        -3.66983251329791    4.99899977133346    1.88006491925600
H        -4.50575483776878    7.31922429089519    2.27045722245588
H        -4.04640953360972    7.06280533661866    0.59203299011684
H        -2.98475201438673    7.97525406152213    1.65707123216696
H        -1.30418526610577    4.61328454468661    1.29471519669826
H        -1.07557931899319    6.35194721396143    1.01539104369742
H        -2.17266720530826    5.43341389758938   -0.01063552344520
P         0.39339120487618    5.66483368058396    5.12581687641789
C        -1.97846786818587    2.49595322128832    3.12580999659215
C        -0.41915060862336    7.35014089772147    4.99466071792908
C         1.97433071065694    5.98490410233554    4.15725242519029
C         1.05019485780577    5.78280168438389    6.88804034744996
Si       -0.91362916986362    1.49981372933239    1.93147940814602
H        -2.84932840346811    2.86640212925038    2.56781743587796
H        -2.40410888671367    1.80365388661403    3.86623425460188
H         0.33694531280520    8.11666693040941    4.80045452856678
H        -0.85993052696975    7.54877514478470    5.97303392265535
C         2.94992622303749    4.83586289302305    4.38600802067927
C         1.59183976025687    6.07172048936809    2.68406821094383
H         2.43376567002033    6.92992898440187    4.46824546562960
C         1.79427621703836    7.06295313785815    7.25747096748688
C        -0.10631671200963    5.52542563094884    7.84938042829241
H         1.74467763244702    4.93885938424534    6.97616794205939
C         0.76892780522936    2.38198523908656    1.59451964638219
C        -1.72193496279324    1.27650167108269    0.20761311700961
C        -0.45543615663729   -0.24711159925189    2.56510408078083
H         3.35064145138352    4.85035765307695    5.39691764307145
H         3.78690758762362    4.89921962694749    3.69140833909890
H         2.44458770194032    3.88222816672451    4.22936362047111
H         1.05242089546414    6.99296731415554    2.47577093367849
H         0.95264873121066    5.22395713361224    2.42221010397407
H         2.47706817463681    6.04930345011078    2.04961014707426
H         2.66448291783576    7.22092062144054    6.62569876875412
H         2.14061676304126    6.99181632587235    8.28807876917279
H         1.14718859331568    7.93346295923225    7.18432154426173
H        -0.66219174784503    4.64562495732562    7.52624399432748
H        -0.78357041215758    6.37607844737716    7.88714351760778
H         0.26795925869259    5.35224738115795    8.85707191998761
H         0.65488556697524    3.24135580066888    0.93776122541648
H         1.47431258844204    1.70915276631238    1.11496169006261
H         1.22854403200323    2.72500281399099    2.52139360908861
H        -2.63005701894981    0.68630779912485    0.27777389604866
H        -1.05439221946840    0.77180388665589   -0.48405875580707
H        -1.98833831704809    2.23276701193173   -0.23275284749887
H        -1.34383688973091   -0.84904386181562    2.72898616404157
H         0.08374503745358   -0.19895484960137    3.50588052622889
H         0.17144745314131   -0.77604794690356    1.85285055896133

