89
CSD_code = VABYIH | q = 0 | S = 0 | Stoichiometry = C32H45F9P2Pt | MND = 4
Pt        6.06107769007590    1.05991422316542    4.85536070953091
P         5.09010888042494    2.43049313561150    3.08257590462236
P         6.16537561216396    3.30878427659319    5.68253198566908
F         4.11825888323027   -0.80808357529249    5.96388890184599
F         4.66653921578785   -2.80440887851937    5.38148464163331
F         3.87057443459108   -1.44145373108095    3.92227201522985
F         9.31006085612152   -0.76245646724369    1.43298688105909
F         7.87974954429086   -2.33906117683551    1.13904546251359
F         9.69850166731072   -2.72017780431268    2.22505606516803
F        11.87020561060850    2.07417154407725   10.15840271604473
F        12.90096681057573    0.18816474075127   10.06715039922344
F        11.11294014193064    0.38369151569527   11.24661037119462
C         5.40711452123065    3.99049575396186    4.10218656133612
H         4.48736687189040    4.53650577383854    4.30810795988615
H         6.09744789943752    4.65771194899527    3.58617458684545
C         6.46524505009102    2.42943170256400    1.76562758119541
C         6.49832757709830    3.62195611457868    0.81419680884742
H         7.41188847304829    3.57640071522656    0.22218460765650
H         6.49978284245694    4.56776543329430    1.35407349769958
H         5.65968632279453    3.61570950436600    0.12354285644321
C         6.37973003251765    1.11447021919066    0.98156292525614
H         7.35799103726147    0.86483960100620    0.57505593569132
H         5.68725463881398    1.16416796131755    0.14932268053559
H         6.07470238184969    0.30317710203737    1.64030150441456
C         7.77637903938751    2.39086090461985    2.55464260091277
H         8.60258156790321    2.11284596100274    1.90296791333572
H         7.72025498698399    1.64580453348138    3.36162974685276
H         7.99809187973767    3.36007556532977    2.98389261501516
C         3.42278749121027    2.78083191007961    2.20970742001955
C         3.21763122186427    4.24864032578950    1.83806913543725
H         2.30391948234800    4.34107375326464    1.25185473385035
H         4.03863036082361    4.63659376213430    1.24361190303952
H         3.10324584162457    4.87627509660275    2.71874320323387
C         3.30221263659408    1.90974088159004    0.95989468344263
H         2.27364129669068    1.93134424586007    0.60072378221239
H         3.55338304161659    0.87637362008483    1.18898061095861
H         3.93429030964171    2.26892425725147    0.15426499574598
C         2.31082777498475    2.33585016013907    3.16354305507988
H         1.36231999672656    2.29017653054203    2.63068078560357
H         2.18592680030251    3.03020474059165    3.98725998523834
H         2.52038331454311    1.34556601177833    3.56423486328444
C         7.46799081029571    4.62877320142535    6.16115552666056
C         8.68404205332252    4.39251596111966    5.26061108046051
H         9.55129037558606    4.91244651025722    5.66463000560544
H         8.51448793667062    4.77991308035140    4.25907684510334
H         8.92348590302796    3.33136761574895    5.20344318988561
C         6.99708304366154    6.07136111514417    5.98095771631839
H         7.85374667810114    6.73520108302456    6.09447195532378
H         6.26027301973420    6.35590630611257    6.72330648873201
H         6.57635926247171    6.24305997236471    4.99335355618667
C         7.93148605973654    4.41454259274876    7.60124031853619
H         8.75995461390655    5.08822685435528    7.81821997353515
H         8.28711007157094    3.39642145000419    7.73694785728359
H         7.14542551235629    4.62343095479703    8.32005904278613
C         4.77750423337767    3.35155850545753    6.97750174051586
C         3.56630110765943    2.68931994301258    6.32324592885725
H         2.87128072933754    2.34018307365978    7.08425204637428
H         3.87988134011948    1.82135196614172    5.73075596785661
H         3.04015739388781    3.39418477579902    5.68833987497494
C         5.21634500538616    2.42951983654372    8.11840841284393
H         4.42506947492037    2.36150773840282    8.86324106553839
H         6.11770532911114    2.77195294043297    8.61592772131635
H         5.38946437639377    1.42991853474670    7.71825992891810
C         4.35444833946508    4.71880439511222    7.50545766164351
H         3.43813547256380    4.60510643061257    8.08453139379180
H         4.14873492765749    5.41007092914971    6.69023106483588
H         5.10149887374968    5.15557653989778    8.16161884974771
C         6.92865972110972   -0.60972831989500    5.78576963313789
H         6.55657998165599   -0.76621752518699    6.79855539817366
C         6.09005032831962   -1.03693244436024    4.66935517814972
C         6.69495031974794   -1.50804242192948    3.47349593685673
H         6.07284028248535   -1.92633070882664    2.69512368674946
C         8.05372034508740   -1.42131401859147    3.32397154901825
C         8.88466946467700   -0.97938704835390    4.37865144499008
H         9.94949787086191   -0.94041659797107    4.21130988102656
C         8.35289459844067   -0.63743292550710    5.59856902983745
C         9.22069753252613   -0.29721393434881    6.73116459457567
C        10.46089770359960   -0.91123025364158    6.90512816829875
H        10.78868893538452   -1.66574337266006    6.20738204561119
C        11.26692489979187   -0.58601193577647    7.97871580111481
H        12.22392735227961   -1.06740539071284    8.10804972613653
C        10.83798047161393    0.36254396277065    8.89697090933042
C         9.60159161429294    0.97932525315709    8.74404623680218
H         9.27862600213894    1.71275399810906    9.46801495275413
C         8.80383993277142    0.64848206430314    7.66907101347279
H         7.85214091016466    1.13877982876564    7.53014282104631
C         4.70359405085554   -1.51667971975917    4.97544273120406
C         8.71795503207549   -1.81489214247563    2.04338541134989
C        11.68150666745503    0.74127945349944   10.07733304377857

