105
CSD_code = VABYAB | q = 0 | S = 0 | Stoichiometry = C32H54F10O6P2Ru | MND = 6
C        19.64213658538721    0.06096979268977   14.11977121725897
C        18.66407238120319    1.67507729792855   15.97474765470533
C        17.54338461611015   -1.18065916742700   12.48806153189557
C        16.86239029461320   -1.85664105887216   11.23670626259685
C        17.87644287552332   -2.01405458780209   10.08679542396475
C        16.00559896867843    2.70664852281398   15.27690660188881
C        14.55476483407732    3.29288152640194   15.47207007721835
C        14.22395681743813    3.43500649714049   16.97050869348047
C        16.93224037617729    3.58302623192243   12.37079296029263
H        16.50634819240634    4.18609695767428   13.17734698155502
H        17.31655408508805    4.27550776031144   11.61355476375828
C        15.87240410910562    2.66022195455150   11.77022450575125
H        16.30095718798427    2.08973383223002   10.94234127770870
H        15.54232769995137    1.93886845335576   12.52167068859069
C        14.66102995060708    3.44526767291749   11.27210995055023
H        14.96298111495537    4.09980331454160   10.45022628399323
H        14.28301289503798    4.07929406721178   12.07746581136071
C        13.55281513555638    2.50975667299874   10.80527040481086
H        13.91647584932713    1.84414457593800   10.02543814505221
H        12.71229757860427    3.07712837962824   10.41313378437384
H        13.19951698026365    1.90310876468411   11.63590636299578
C        19.42278797183865    4.02641372798678   13.71173823013521
H        19.44327356809529    4.83663667222267   12.97900720718741
H        18.92191841076190    4.38876245248392   14.61330616022652
C        20.83171869475877    3.54321066986939   14.05181398729861
H        20.76231728283756    2.55890331607224   14.53171108647275
H        21.41675379013164    3.42684500261791   13.13698262467750
C        21.56258707650630    4.49843060419396   14.99592395022694
H        20.97573013885774    4.61576500487564   15.90842568195458
H        22.51943459502383    4.04988885960563   15.27110493228530
C        21.81510370702676    5.86576499672436   14.37148559603579
H        22.36098339320105    5.76369132594885   13.43567922017341
H        22.40578961574510    6.48235201860710   15.04421141665670
H        20.88004713522313    6.38300527209545   14.17388405510516
C        19.27086104133006    2.07377534999241   11.55644452073403
H        20.19273958233035    1.60529475276718   11.91846505401796
H        18.66008419920252    1.28096710048363   11.11620832734707
C        19.60524389162896    3.11223918907079   10.48885956419073
H        20.14949810241007    3.94985137039114   10.93026303811232
H        18.68913945506684    3.50097643795640   10.04152478901379
C        20.45920592566190    2.48893910292652    9.38460406784955
H        21.39434474250858    2.12311366852358    9.81415212298909
H        19.93061182522081    1.63065950182392    8.96547505998673
C        20.76657618634729    3.49075347500902    8.27826096402904
H        19.84762143351583    3.84706176949597    7.81824478323912
H        21.37813182279735    3.02953018941657    7.50722903446248
H        21.30542714311659    4.34826002875399    8.67596420279802
C        18.49589415286058   -2.31214881490360   16.18768979162948
H        17.99087375934213   -3.14340351736929   16.68546307629656
H        18.92112706875596   -2.67826293625923   15.24956478213770
C        19.59572513275612   -1.71765931224808   17.06617852308808
H        19.84881686599935   -0.71847970991415   16.68973053198545
H        19.23461098839888   -1.60529563672595   18.09072905993026
C        20.86222259720772   -2.57427793794212   17.07146383469535
H        21.22178386902723   -2.68406255422575   16.04700549467223
H        21.63337650949961   -2.05071913415503   17.64037995507739
C        20.63940047898312   -3.95168186003383   17.68493569874371
H        20.23763046785992   -3.86114251699104   18.69215902517864
H        21.57969492450516   -4.49417531093797   17.74133660574275
H        19.94747376670850   -4.53776755593809   17.08607849082139
C        16.56654536034172   -0.45507751529650   17.33223089456970
H        17.38020012477008    0.09639473907253   17.81622605866982
H        15.78350699326440    0.27027970098261   17.09542652187961
C        16.01464471024843   -1.50636514870794   18.29137393157697
H        15.14048096053041   -1.99253334960044   17.85558203214835
H        16.76680196365752   -2.27322925949412   18.48817886853491
C        15.60254451489240   -0.86048479870055   19.61427591294309
H        16.47432126531491   -0.38932196996696   20.07342638914739
H        14.86950433051144   -0.07623644859202   19.41589680317423
C        15.01106708069020   -1.88173843671203   20.57825363411820
H        14.12591726462157   -2.34562645812260   20.14886835946178
H        14.72727117192350   -1.40310151990039   21.51183185890232
H        15.73429405904668   -2.66378900810110   20.79998771807637
C        15.88196518002626   -2.09298930539952   15.03900559997010
H        16.29769739270038   -2.69166564372715   14.22395318716332
H        15.57295904651614   -2.78687551384810   15.82873034402029
C        14.69259331736085   -1.26782771382063   14.54919116100925
H        14.26407858855243   -0.70244140173165   15.38061232654950
H        15.02885057800926   -0.54187390510230   13.80488069059771
C        13.61345620526993   -2.15102381422591   13.92696629240425
H        13.20293709909300   -2.81790988892589   14.68973949270022
H        14.05885906163432   -2.77441635480656   13.14822791695180
C        12.49570164662728   -1.31068550772780   13.32215487071871
H        12.05861776176325   -0.65663044372153   14.07355727953683
H        11.71240288080653   -1.94787663266671   12.91895373512158
H        12.88463802944108   -0.69313532496398   12.51584013450675
O        20.69469198629090   -0.34488167175886   13.95019208453215
O        19.14504444105592    2.14960039180198   16.89391514187638
O        17.12477255015588   -0.03850115252797   12.73710317496192
O        18.40402769152310   -1.82339166102416   13.06960442837679
O        16.02674425164047    1.54378140101280   14.84164647276754
O        16.94436126931410    3.42797917336441   15.57695456727064
F        15.81700751129022   -1.12812885408454   10.78583623692491
F        16.37376445960888   -3.07813450070384   11.55701160112582
F        17.31016735883147   -2.45953694686289    8.96584952930333
F        18.85918679888193   -2.84825319175196   10.40157312585541
F        18.43063903217040   -0.82712721375148    9.80031541539078
F        13.61841011785732    2.50151052338503   14.90287368325790
F        14.44424616476876    4.50751804998173   14.88445356804208
F        15.02266498667169    4.30588843902457   17.57472172037608
F        14.37663686338921    2.25401075296494   17.58674149832562
F        12.96706216336968    3.82405536215888   17.18075985263721
P        18.37532634645790    2.67385387966639   13.05198133384604
P        17.23739232058126   -1.06145355103338   15.72585837246045
Ru       17.98422725746626    0.81508917124613   14.47700224729888

