39
CSD_code = VACBUX | q = 0 | S = 0 | Stoichiometry = C19H14FeN2O3 | MND = 7
Fe        2.19385670379470    4.28027530327351    4.16110605774058
N         0.50990963323662    3.98217865932193    5.51890562250459
N        -0.13615800296685    4.77994746680181    6.31820914509095
O         4.64986855603538    4.13993596869856    2.61793023681409
O         0.77659387847618    5.70589362682799    2.01210259248882
O         3.51012248572955    6.53631995138745    5.47087115742585
C         1.89417627182767    1.45822037465264    2.55618738334001
C         3.21411358915079    1.00105473023061    2.53059009762334
H         3.89150678684646    1.26804509658905    3.32889618378208
C         3.67284190819563    0.22524943212113    1.48452625499928
H         4.69691991217809   -0.11858892640785    1.48172928609008
C         2.82896295636478   -0.10804455947908    0.43719870498630
H         3.19125592831647   -0.71285371196322   -0.38053042477523
C         1.52027507226267    0.34581861106004    0.44271200186886
H         0.85796646747541    0.09496224609575   -0.37294373427036
C         1.05924444349342    1.12102104797015    1.48862940713103
H         0.03804253619716    1.47551582590598    1.48543519113546
C         1.36923812595988    2.28172500502049    3.64672524763509
H         0.29155555946062    2.43182255520352    3.59171525354090
C         1.90908757359573    2.20688587039299    4.97053655012556
H         2.66892769602191    1.48633209542301    5.24225354335127
C         1.36473686978039    3.05153986997019    5.95370125412013
H         1.61962026727676    2.96791487883588    7.01009155496409
C        -0.23781387196309    6.03295556884293    6.10609167883868
H         0.34578141668884    6.48944301187137    5.29056181204989
C        -1.07363943863215    6.89101612773574    6.90911372354646
C        -1.86676352656737    6.37469171584008    7.93816023676520
H        -1.84920774706262    5.31148377311509    8.12147409695519
C        -2.65495255200820    7.21367832257659    8.69852625761601
H        -3.26591122934806    6.80677124608214    9.49114102031852
C        -2.66633031380074    8.57817758034366    8.44893044693915
H        -3.28394997668320    9.23243045190116    9.04620989297750
C        -1.88368242494164    9.10060480896813    7.43161788151974
H        -1.89126525239065   10.16295176987715    7.23626093579945
C        -1.09278573459037    8.26617573057586    6.66617656861885
H        -0.48143695595569    8.67365832954860    5.87348982194004
C         3.69221259883519    4.14395770843098    3.24752779881285
C         1.25080311201628    5.12255680454420    2.87414020123660
C         2.97177667769521    5.62107563181296    5.03359905835435

