75
CSD_code = VACDEJ | q = 1 | S = 0 | Stoichiometry = C29H43P2Pt(1+) | MND = 5
Pt        3.84751346481687    2.47581318938892   12.03935904976704
P         5.29434091727164    0.76458138164417   11.50404145221540
P         5.33659566156429    4.19456336898109   12.43962915326230
C         1.98424223238543    2.93714533284496   13.61824545419900
C         1.85927655586452    1.57358609023146   13.35257839621024
C         1.87920235277581    1.42708764335556   11.89459126752099
C         1.75269512962438    2.70654336889776   11.30297349119367
C         2.01011717254218    3.63891581777372   12.33165096145104
C         2.08253585234527    3.62112660418719   14.90750011574160
C         2.87728206375130    3.10279811410026   15.93268467572929
C         2.99938195450269    3.77274563479847   17.13336612536214
C         2.32984829928224    4.97023001657823   17.33441296607423
C         1.53603545002349    5.49195372641699   16.32660608084694
C         1.41603497287180    4.82827488563829   15.11917113168842
C         1.53235733992157    0.48892502172436   14.27222590254060
C         0.82040157044202    0.74531476696684   15.44628542614339
C         0.46358581593335   -0.28674296094493   16.29158813703107
C         0.80274666643661   -1.59473874329780   15.98583547769387
C         1.49169736386764   -1.86507678334400   14.81559486984684
C         1.84702330665142   -0.83562729731613   13.96652533051932
C         6.25629945481728    0.01428896829800   12.88098009345478
C         5.34400564223059   -0.44603675122110   14.01193234824806
C         4.43091964196159   -0.65166777671820   10.69972441717475
C         5.32271908653524   -1.77727471251576   10.18946448984280
C         6.60547655514506    1.21675251497868   10.29726599689629
C         5.98750942607192    1.71172329337067    8.99429140417418
C         5.95857567630489    4.98137217525214   10.89862970021765
C         4.80110322512822    5.35505693127150    9.97894483838926
C         6.86677937764452    3.81000882432144   13.38221936395872
C         6.51240426802609    3.26967983752672   14.76299786878140
C         4.57655385309263    5.58384468732609   13.38318913271073
C         5.52622957795666    6.70103024053194   13.79987184258196
H         1.61609984083710    0.50436068163869   11.39693681501546
H         1.52619244411852    2.92110509530249   10.26946447050199
H         1.87959981891745    4.70775404723779   12.24140836784214
H         3.40037403902722    2.16961126647457   15.77818689491273
H         3.61861444333472    3.36053200270159   17.91570923578204
H         2.42373606605634    5.49149436009542   18.27437369500570
H         1.00569648443360    6.41922229880993   16.48158192948574
H         0.78164569698614    5.23287567083872   14.34404468553209
H         0.52529023669524    1.75573445000514   15.68339312883940
H        -0.09054009994629   -0.06866120496062   17.19180160714255
H         0.52310304004382   -2.39843425189282   16.64895298770917
H         1.74859175555076   -2.88270435516699   14.56124036014357
H         2.38247120048959   -1.06086409107377   13.05580934844279
H         6.84947373540435   -0.81594113025252   12.49158826821526
H         6.94917748567936    0.77647640554889   13.24369674993695
H         4.61447192700889    0.33048348102433   14.24878010612705
H         4.80104593074713   -1.34661852915658   13.73894641084159
H         5.92137749311424   -0.66100316822023   14.90753725945655
H         3.72755205505931   -1.04807853680394   11.43574047893585
H         3.84165920201831   -0.23356436221345    9.87793857868999
H         4.69908905707431   -2.56131552475971    9.76522448698307
H         5.99832575393851   -1.43456641870609    9.41074223054017
H         5.90833227313077   -2.21852230682321   10.99181216336423
H         7.21242106804914    2.00342527695381   10.75259224316525
H         7.25363013550870    0.35433389837436   10.12781957985613
H         5.19157108659898    2.42663524692966    9.21011429497094
H         6.73439940451055    2.19814834522058    8.37187586542365
H         5.56177680173059    0.88893103646867    8.42633576030676
H         6.55408723828191    5.85973272279702   11.15601587318138
H         6.61556203162390    4.26518666503798   10.40140648057634
H         4.24036293065375    6.19775195440807   10.37533183295108
H         5.16749424428606    5.62823649144182    8.99279031986163
H         4.11927457409988    4.50788355051694    9.87257713880691
H         7.43125205630930    3.06560301085025   12.81507905318078
H         7.47997096671490    4.71100079698972   13.45101909239453
H         6.09573091792227    4.05009858595027   15.39450205217988
H         5.76812292583121    2.47821239645910   14.67048084355193
H         7.39234858852044    2.86645433198955   15.25820993863287
H         3.78766900667838    5.99475355680366   12.74853792359882
H         4.09381376466474    5.15486327088092   14.26546250328346
H         6.26245989317168    6.35625017473412   14.52023211168716
H         6.04524977505820    7.12957248819559   12.94608061842782
H         4.95093278223912    7.49505290830655   14.27094925308067

