99
CSD_code = VACDUY | q = 1 | S = 0 | Stoichiometry = C50H42N4P2Rh(1+) | MND = 6
Rh        4.01285934141167    1.19304732999988    4.29976343126770
P         4.13618332473420    1.33663075629364    2.02453685388712
P         3.88455549559529    1.15386301642542    6.58499992618770
N         2.95325085775681   -0.62783905643886    4.24141105478113
N         5.52399348904460   -0.12682838439046    4.28720145559217
N         6.76260830244424    0.25787813677734    4.30408423305940
N        10.09377824489131   -0.97246272661725    4.07094519388121
C         1.63553666028646   -0.80791598456248    4.21990199103049
C         1.04655170087380   -2.05840339018316    4.21236600529757
C         1.86182006707715   -3.18071234944926    4.23263701679796
C         3.23145224502106   -3.00330447595761    4.24744978025245
C         3.75659571911340   -1.71176447834004    4.24245092398748
C         5.19075175171791   -1.43180405231417    4.23346284501242
C         6.19409487546055   -2.40612108601956    4.15820942159718
C         7.50537393518818   -1.99768248921033    4.16104020540694
C         7.75409593204072   -0.61792190702161    4.25103029085822
C         9.11834579111419   -0.09116944303979    4.28834046906125
C         9.36215756643211    1.25776584208171    4.54534332731518
C        10.67592665904944    1.69512769464040    4.56378578007319
C        11.68933806154635    0.77940427590970    4.32703338031063
C        11.33926080870148   -0.54517136586620    4.08842261976766
C         5.79733716391501    1.18917157235569    1.28237798775631
C         6.04970970847761    0.49649462277182    0.10273862746295
C         7.33128888831413    0.46630459397257   -0.41824003652159
C         8.36275024684342    1.13495738808566    0.22009770716115
C         8.10842440897912    1.85349177151263    1.37674663951784
C         6.83153002811563    1.88247087676562    1.90551412559944
C         3.54773385183222    2.80711828037054    1.13095716742210
C         3.37725149999349    2.74350587893830   -0.25032953152730
C         2.98098711909922    3.86856595945651   -0.94722127853768
C         2.76478570273024    5.06256024681767   -0.27575862549859
C         2.94662661291461    5.13058430536393    1.09523276317744
C         3.33957468329222    4.00584515125028    1.80017073189805
C         3.17161227595655   -0.02321907593575    1.29485586389287
C         1.82481300749833    0.17635391813718    1.00403576169662
C         1.03805229414684   -0.88260658287945    0.58952503466110
C         1.58220870272495   -2.15240114973122    0.48020263279578
C         2.91586119032905   -2.36268006608753    0.79119505959086
C         3.70674437284915   -1.30637916441373    1.20524007548163
C         2.26981270034417    0.88888676451903    7.39452253154912
C         2.17777810561648    0.28163823188683    8.64408709525407
C         0.94935329109472    0.16746891385876    9.26829424748751
C        -0.19218032515189    0.66797511644197    8.66273790677834
C        -0.10169972793096    1.29502475638423    7.43129752794392
C         1.12464966470542    1.40871624686742    6.80164686252750
C         4.44730745119520    2.57832578195550    7.56843116208690
C         4.31597591473379    3.85447888693928    7.03296709497712
C         4.64966785459922    4.96207979150752    7.79150732283689
C         5.11140890108694    4.80106458436950    9.08748973721426
C         5.23494872876022    3.53025771521986    9.62681335815865
C         4.89839755461065    2.41934686180710    8.87585305309943
C         4.90526473714524   -0.23276486242941    7.17424414112462
C         6.27861882560792   -0.04351202560189    7.31628140695945
C         7.10483769163747   -1.11847875403141    7.58547785265080
C         6.57121660686522   -2.39311231701697    7.70144591924021
C         5.20886914149838   -2.59033297738799    7.54561647749896
C         4.37818453307802   -1.51790136522501    7.27141876611041
H         4.87420359915119    2.41794765877524    4.38019860748449
H         2.82188572873370    2.12095131360796    4.25965744665323
H         1.02760559817837    0.08560604843989    4.20549195365614
H        -0.02695020580230   -2.14822352396482    4.19268227240431
H         1.43835957697491   -4.17277709839174    4.23514022919910
H         3.88700749621584   -3.85804728141799    4.26519840412601
H         5.94357525744974   -3.45288616792710    4.09339923222326
H         8.33409715384072   -2.68290257945773    4.09968922184524
H         8.53343467815995    1.92232737394491    4.72653978242258
H        10.90578538427848    2.73196282788487    4.76022212943535
H        12.72502051491755    1.07910407823353    4.33005000564186
H        12.09254913612226   -1.29899782793265    3.90342135940484
H         5.25322160326888   -0.02038611108963   -0.41333891523014
H         7.52282681556008   -0.07840309861781   -1.33066217442342
H         9.36051641983734    1.10419728769532   -0.19045173411323
H         8.90651583510789    2.39303639893406    1.86426398750923
H         6.62084702801574    2.44408517464853    2.80531912355786
H         3.54772182645927    1.81304443150253   -0.77413195860144
H         2.84208949015247    3.81607404504964   -2.01656878387393
H         2.45584951939061    5.93915517796531   -0.82442080463418
H         2.78159631564844    6.06131453417584    1.61665659854312
H         3.48100390602180    4.04448222654709    2.87145322354599
H         1.40388860246157    1.16821956385426    1.09874087756427
H        -0.00206012355897   -0.71856196966121    0.35161563315592
H         0.96873423751485   -2.97789564960877    0.15329361659850
H         3.34135344211227   -3.35223787315833    0.71003973003897
H         4.74891132352934   -1.47455652067083    1.44870260459677
H         3.06237470114962   -0.10380466475548    9.13040218368246
H         0.88393401549750   -0.30870295423457   10.23509600611779
H        -1.14801257213950    0.57722950231095    9.15553047806286
H        -0.98642492585410    1.70158932225615    6.96456662667068
H         1.20665954029571    1.91525227276154    5.84933827694687
H         3.95725292001320    3.96564869688067    6.01859040475366
H         4.54926655837669    5.95176390822703    7.37220588722650
H         5.37398570579473    5.66448093973657    9.67947186062786
H         5.59169989720549    3.40419795313947   10.63805588827994
H         4.99657844830039    1.43138448610015    9.30334007133617
H         6.68914396673026    0.95201753081842    7.20969257526958
H         8.16779273726628   -0.96494961218628    7.69888235100739
H         7.21752338443210   -3.23127679891318    7.91231411511808
H         4.79130425612527   -3.58245342704405    7.63480374409522
H         3.31389696947384   -1.67462533211777    7.14551848656637

