76
CSD_code = VACDAF | q = 0 | S = 0 | Stoichiometry = C29H43ClP2Pt | MND = 4
Pt        7.36436416751728    7.62828119558359   15.54958350925788
Cl        7.62453520279110    5.55292590026592   16.52951634971732
P         9.72460235650848    7.71398169271843   15.95460669034054
P         6.80449494915179    9.51703118512198   14.41896056472026
C         5.39013687804231    7.15139137587482   15.45324219672636
C         4.60429563822322    7.31961683927140   16.50749804166442
C         5.06871270930833    7.95761285994622   17.75736787185207
C         4.64554848749464    7.41491465867227   19.09875869484211
C         4.12067962578889    8.57727455791292   18.75172129680637
C         4.78372854923105    6.28793470656696   19.95127555050147
C         5.68050053354567    5.27004284526265   19.60924901974181
C         5.82018042173251    4.16759443496935   20.42802942704582
C         5.07232294218313    4.06000739965163   21.59055984653041
C         4.17827498874476    5.06327170538012   21.93496981096595
C         4.03203463427961    6.17138094918928   21.12602512367566
C         3.28469252549832    9.69415324918181   19.02335662663177
C         2.83984756584326    9.94796902219611   20.32644247564577
C         2.03400766886349   11.03598528848347   20.59024834701744
C         1.65272536726403   11.88991085122309   19.56601301045941
C         2.08349013194267   11.64657364623942   18.27127503422557
C         2.89290824133796   10.56221986447949   17.99952335027879
C         5.71597122603550   10.70256427533309   15.31092670502594
C         6.41925358427903   11.33285105247518   16.50602179943789
C         5.79142863102810    9.16462533691487   12.92193467463240
C         6.48443448131450    8.11964593672460   12.05736949524550
C         8.17539636624734   10.57548187782278   13.76496874186281
C         7.78277658605260   11.77734282715629   12.91585955956058
C        10.50198447746513    6.32337948335614   15.02534286514245
C         9.91339234365203    6.26495869048162   13.62057055300455
C        10.18348104427335    7.31105616898681   17.69255928279058
C         9.64121345416489    8.36698803879966   18.64790871107105
C        10.87590693283173    9.12618738370085   15.55617977647321
C        12.30608705645453    9.03417666906520   16.07100487978514
H         4.99397157957692    6.62794898774656   14.58146917008120
H         3.57580901673393    6.96605066439699   16.52175252984174
H         6.08320202375297    8.37264356634687   17.66649481533683
H         6.25521309450720    5.35601824024900   18.69912823878853
H         6.51368399838618    3.38484102402486   20.15735153005070
H         5.18148558097963    3.19406538100625   22.22757384525629
H         3.59236852791052    4.97588347468236   22.83921437945505
H         3.32874803821580    6.94920412731196   21.38585562248875
H         3.14691417497231    9.28793037957848   21.12393184981828
H         1.69787973232325   11.22354721821775   21.60001587736005
H         1.02090405375085   12.74017008459794   19.77658170335960
H         1.78368247260869   12.30786415652864   17.47051113878850
H         3.21545329670706   10.36220361672452   16.98854784999714
H         5.33867157123665   11.46360024943930   14.62292012173898
H         4.87147318514417   10.09935174368089   15.65302045649159
H         6.92141698994287   10.56008841449269   17.08722263243404
H         7.16276116406429   12.06025716556111   16.18690561068485
H         5.70241894062609   11.83494364191714   17.15278417609940
H         4.83437773549761    8.77785819586674   13.28058926082292
H         5.59989344390679   10.08403291920314   12.36402409015642
H         6.73791983596220    7.25481173553621   12.67325692911774
H         5.83773631220368    7.79102608101545   11.24655502500407
H         7.40242922501112    8.51421160480600   11.62668147402301
H         8.73868289603484   10.90755875867070   14.64037802978026
H         8.83031409632113    9.90989880083840   13.19583526513918
H         8.67312303794525   12.35009066506185   12.66080246254908
H         7.30848387876928   11.46997393640003   11.98754101152886
H         7.10364127122689   12.43497617057514   13.45251938572622
H        11.58902719500599    6.42996140144749   14.99577070643064
H        10.25286980515512    5.40658221781102   15.56399884346822
H        10.16337385746738    7.15915634462444   13.05047207882966
H        10.27854405860305    5.39599687260929   13.07669126206745
H         8.82406381839101    6.19355481501151   13.69414532140172
H         9.71874354001609    6.34718195685776   17.91261339195110
H        11.26739745059528    7.20350655790724   17.77928761535090
H         9.85195140216330    8.09846938727179   19.68134235912789
H        10.07750743041360    9.34533739209480   18.44988925180172
H         8.55975459232375    8.44176280026458   18.53006705549760
H        10.88185646867723    9.20744325285162   14.46545777591480
H        10.41201873969124   10.03683585453253   15.94437446552024
H        12.34188871051865    9.13181748422208   17.15246337131980
H        12.77216837437821    8.09180007852136   15.79386164466591
H        12.90156561364969    9.83981060968650   15.64333049206039

