91
CSD_code = VACFOX | q = 0 | S = 0 | Stoichiometry = C44H38Cl2CuN3P2S | MND = 4
Cu        0.52099153776714    1.92147678807161   11.70073481947994
P         1.69102862424582    2.94197674010746   10.08793847996412
P         0.78263259092745   -0.34230464399502   11.95433370272764
Cl       -1.76982703068245    2.16511329604183   11.40658834873051
S         1.14497166320863    2.68053238438248   13.95359319398418
Cl       -7.29040815228913   -2.71844037439671   17.34872509095993
N         0.13996796733743    1.73659904275160   16.18345939024780
N        -1.21923141770897    1.58497680292867   14.34243083454851
N        -2.11876391505901    0.91723011850014   15.08850973367418
C         0.43486920259246   -1.20833696700503   10.38827772633160
C        -4.18434829578028   -0.24685488828916   15.21974283921407
C        -0.05051158439295    1.96494337338465   14.87578324179473
C        -4.03597213533908   -0.56734514229608   16.57226573907803
H        -3.16054640868647   -0.21541478545788   17.09373346615289
C         1.57347065866440    1.93812994154572    8.58237366018187
C         1.10125028980105    4.58127179394584    9.55580139483050
C         2.48073030431941   -0.87154014889226   12.34945755756438
C         3.47785385765545    3.27414319973254   10.25121314981156
C        -0.20734055277209   -1.29488383149099   13.14812573255380
C         4.40329156346607    3.13680119538952    9.22346207083597
H         4.08708760886372    2.79496651551423    8.24758788680522
C         3.48395672141415    0.06825394504177   12.14038628743920
H         3.21010281566158    1.06115002315452   11.80226556636704
C        -3.18622174585943    0.51657590337662   14.50980131125657
C        -5.31689917767993   -0.70365053177879   14.54227806375393
H        -5.44269225293963   -0.46174124195370   13.49742722575641
C         4.80751792899459   -0.25101345644408   12.38043932604762
H         5.57769272437234    0.48795292354327   12.21284666182936
C         1.69588492103886    5.27671487482638    8.50655425799742
H         2.52938219256141    4.83992091820304    7.97373848228163
C         0.19667724960707   -1.31381248157863   14.48251886437842
H         1.12864386731631   -0.83942991820977   14.76259211352034
C        -6.10119326497711   -1.76799874088755   16.53197428279920
C         6.15058635711852    3.85603877037919   10.70698797733490
H         7.19315271681113    4.07916257245185   10.88109684201725
C         0.03497168682057    5.14290451068332   10.24819299414658
H        -0.41876553605375    4.59057498663130   11.06070409908603
C         3.89843467057538    3.70219020114359   11.50836579801391
H         3.17132475273035    3.79092411772121   12.30623374385884
C         0.81985349092180   -2.88106332410241    8.71308480757232
H         1.38746720649505   -3.72590731826683    8.34930246252624
C        -6.27198854135210   -1.46079761220017   15.19033446137458
H        -7.14532024731694   -1.81361065146767   14.66417619091991
C         1.16696465019561   -2.29040746273202    9.91482732283663
H         2.00795882421264   -2.66833627798436   10.47857290364559
C         0.62881214190588    2.21146101718675    7.59865524716226
H         0.00670936643896    3.09168655652558    7.68283942001709
C         4.13795082634992   -2.45245086557141   13.06712472366199
H         4.39558148218750   -3.43569138336918   13.43416292708752
C        -1.42471983875782   -1.86835094530214   12.79385148947654
H        -1.75712062855692   -1.82813642854322   11.76614406265907
C         5.73555466658673    3.42832818524154    9.45632104784343
H         6.45418368862629    3.32095180698156    8.65636752456731
C         1.27846864317347    0.22474796544532    6.41901069929313
H         1.16997356109714   -0.43689644709377    5.57240381887645
C         2.20233752509603   -0.06622688290142    7.41039175537318
H         2.80984326918766   -0.95668069440845    7.34049566926923
C        -4.98541017074806   -1.32183567372785   17.22761724676811
H        -4.86995506465891   -1.56923742363049   18.27157237296916
C         2.81356281956180   -2.13726570482985   12.82400603867487
H         2.03665396296221   -2.86687205401844   13.00876012915534
C         0.14410784373709    7.07751652708816    8.83832469553337
H        -0.22861836703921    8.05083341261469    8.55391271491520
C        -0.62726158364225   -0.71173422748894    9.63592692493305
H        -1.17774758296686    0.14628690891940    9.99844191473762
C         0.48750949459774    1.35672925953271    6.52045804915887
H        -0.24399287610289    1.57526698091668    5.75602592800221
C         2.33969761249366    0.77605898881371    8.49566801327400
H         3.04643668612634    0.54190350185314    9.28211689258287
C         5.23039729288357    3.99344338554939   11.73403865525975
H         5.55175502172770    4.32206776150242   12.71132117296842
C        -0.24832837372687   -2.39662117497421    7.97654540316274
H        -0.51395692092623   -2.86453237741534    7.03981407297985
C        -2.20052438196125   -2.49215284145412   13.75396440108091
H        -3.14095282447027   -2.94408355818830   13.47382671874378
C         5.13490734112932   -1.51532338996795   12.84173359825975
H         6.16662600895347   -1.77104771002328   13.03380252839717
C         1.21314432845176    6.52139193745660    8.15111585740257
H         1.67052384109152    7.06254732257780    7.33513849846266
C        -1.78085277776384   -2.53522693735537   15.07294415274914
H        -2.39152540075938   -3.02334561327442   15.81759393293439
C        -0.96978944200745   -1.30781344705297    8.43734571647465
H        -1.79623194189270   -0.91976564861768    7.86040181866113
C        -0.58516045138616   -1.93625740909420   15.43588154985121
H        -0.26122823368632   -1.95604894072924   16.46650899499555
C        -0.44439223161949    6.38960113783312    9.88574291796427
H        -1.27719337821234    6.82247539948504   10.41996846705474
H        -1.42253781774889    1.78262843863023   13.33574551537672
H        -3.36652568230525    0.72403988357267   13.45391074254602
H        -0.62244255538890    1.34535539656619   16.71282448848051
H         0.98284271442293    2.05784086188279   16.62289137976561

