38
CSD_code = VACFUA | q = 1 | S = 0 | Stoichiometry = C16H19FeO2(1+) | MND = 9
Fe       -1.54484185804067   -0.92764837038061    0.10624201904801
O        -2.42284931600180   -3.53575350797659   -0.65437908279594
O         1.00786573948794   -1.86013209613455    1.09975425915661
C        -2.81439704867309   -2.12063865179545    1.40323984403951
C        -2.45849625724314   -0.73980666526198    1.84260968254953
C        -1.92983574585888   -0.55207803530640    3.22158666991967
C        -3.10691855955579   -0.83014661082762    4.18194185789123
C        -3.93509632380826   -2.08461842733092    3.85075097373427
C        -4.92663549029020   -1.91013696778210    2.68133842254060
C        -4.33570265984630   -2.27265506493844    1.30484519015803
C        -2.25118607744950   -3.23831289401932    2.30091448121832
C        -3.05560526569266   -3.31271283449444    3.61438531740487
C        -2.22700934042694   -2.57583499036451   -0.03633956867187
C        -0.02230252364336   -1.51796206263060    0.77469282470540
C        -0.57598866377149    0.77758552754484   -0.76047056644129
C        -0.66957005168862   -0.26594948653591   -1.73969425212654
C        -2.03051108980053   -0.49990045746735   -1.98852682667698
C        -2.78224595232472    0.36438395665566   -1.15097310852480
C        -1.88033128051333    1.18586628438753   -0.43417946722314
H        -3.24931232005254   -0.01424166043206    1.64773619917572
H        -1.59349251362692    0.47459329985783    3.36218939648287
H        -1.09548071437656   -1.21219483584179    3.44633307774721
H        -3.77304969490080    0.03355256020138    4.19330547731253
H        -2.69840311369978   -0.94064851305281    5.18663627316343
H        -4.53753767286818   -2.28109259588148    4.74276366552746
H        -5.29197042177971   -0.88297204828719    2.67648532854879
H        -5.78980659593978   -2.55229108697252    2.85692598156834
H        -4.57331188526786   -3.30513468450514    1.04256249942233
H        -4.75336233555480   -1.62799555910267    0.53021981290828
H        -1.19161795433208   -3.06864789006592    2.49304162351319
H        -2.33248696002195   -4.19684807304816    1.78462268114204
H        -3.70257701228604   -4.18967749433632    3.58666003620988
H        -2.37311303402238   -3.43815363023869    4.45424735021691
H         0.33587375868404    1.26172447639325   -0.45226392284432
H         0.16023075694687   -0.69715294166102   -2.27416363765258
H        -2.43440957239608   -1.17087420719044   -2.72565600250556
H        -3.85129414600126    0.48841537718797   -1.18521628843190
H        -2.14322080336311    2.01059086163052    0.20413177859451

