47
CSD_code = VACLUH | q = 0 | S = 0 | Stoichiometry = C16H22CrO5P2Se | MND = 6
Cr       11.78780669195455    0.36790277396348    3.32585877693783
Se       12.47025140025964    3.57630118800137    1.45954820183239
P        10.89288230498546    2.51146524425569    2.62827411983461
P         9.60581981437208    4.79773150929205    0.90464930935166
O        10.30775283476020   -1.54994508135224    1.54166390391291
O         9.94152225833591    0.10545826317674    5.69308721188218
O        13.11362471653629   -2.10791408875572    4.36686465149080
O        13.80093783332072    1.74847624816916    5.08110078609718
O        13.92857059754634    0.34451445713720    1.21004699581938
C         9.52083974981305    2.98101485055381    1.44294806422160
H         9.80463395863591    2.41204604091900    0.53679398752222
C        11.28017195746513    5.00027510533166    0.89290318013707
C        10.71391287070066    3.70493770877441    4.02775240826512
H        11.70242510464411    3.85460775402079    4.46603643821480
H        10.05946625315560    3.28964455911001    4.79216856769906
H        10.32144682045588    4.66292089727446    3.68053853067490
C         8.08031714382601    2.56442642914550    1.80203811566619
C         8.03381438549238    1.09033404345043    2.20224354722225
H         8.59879501285132    0.91749925084690    3.11895393366022
H         8.44547668663759    0.46322055744108    1.41427153742644
H         7.00416208784198    0.78508799900668    2.37618976913618
C         7.21005948228634    2.76691955036410    0.55647754434833
H         7.20902305136685    3.81399732576622    0.25523102831988
H         6.18444833353381    2.46964971292460    0.76252363692682
H         7.57850261236124    2.16856218505252   -0.27422851921569
C         7.52316184781346    3.41711705339342    2.94058912492448
H         7.64946792386313    4.47744587728907    2.72074985211963
H         8.02166876191000    3.18740222618606    3.87814350109728
H         6.46102137210694    3.21989835551688    3.06678126153201
C        11.93733896770257    6.28162749491339    0.43777746253375
C        12.66426163011415    6.92118394739845    1.62607861797771
H        13.15216543706331    7.84148407331972    1.31565453751685
H        13.42114496463117    6.23950543373386    2.01270316455659
H        11.96008994701333    7.15189433357634    2.42260886891736
C        12.94939376251773    5.96089767641847   -0.66636712596509
H        13.44092114988318    6.86969940586063   -1.00430182057356
H        12.45073435820498    5.49498655070356   -1.51341308163051
H        13.70779439292512    5.27168556702256   -0.28775343460229
C        10.88929304583374    7.25735982462866   -0.09804059835443
H        11.37096012729359    8.17407845243780   -0.42978215957797
H        10.16634493219368    7.50686967478873    0.67683694392971
H        10.35510025134522    6.82103938114895   -0.93975624026785
C        10.77748365182624   -0.74084729799139    2.20857601649376
C        10.58485211146730    0.25563024307092    4.75121148812123
C        12.58943081088422   -1.16689398596332    3.96243668067438
C        12.97992500344093    1.29963238682502    4.41180481863223
C        13.07708158683507    0.40226884185251    1.97862639456529

