75
CSD_code = VACRIC | q = 0 | S = 0 | Stoichiometry = C36H30F4O2P2Ti | MND = 6
Ti        0.00182231235269    1.96373983775108   12.00331468705456
F        -0.75766809107430    2.19048407073600   10.42279088396490
F        -1.19145282229130    0.79297996476904   12.50112572071328
P        -0.85199431660887    4.16907473885877   13.94047494404671
O        -1.19802835966682    3.53664681632853   12.62818401412631
C         0.70732439337659    5.12637252538507   13.95413348322201
C         0.63536990302014    6.43073552469633   13.47745945694601
H        -0.32201973548645    6.82476632064096   13.16539729386256
C         1.77001951851132    7.21971383510104   13.41358089155403
H         1.70603132650216    8.22947419761093   13.03388713306618
C         2.98602029646823    6.71453426317440   13.84232536353000
H         3.87314512402409    7.32860907950555   13.79282464891181
C         3.05801980378204    5.42385804902198   14.33971940342037
H         4.00375415520971    5.03099112155862   14.68330409767305
C         1.92529344509312    4.62861793947645   14.39894593221416
H         1.99218711895350    3.62264002302418   14.78181773593462
C        -0.97785846453424    3.08656719687833   15.39220651121472
C        -0.35047874909835    3.38809096631641   16.59307403710315
H         0.28210950988874    4.26122379054943   16.67018978175775
C        -0.52239789409421    2.55387284339904   17.68391703388382
H        -0.02662845912218    2.77931853171634   18.61702323976868
C        -1.32053414525781    1.42662478992370   17.57716245947328
H        -1.44339420431699    0.77296646694435   18.42823206118401
C        -1.95506779965522    1.13359574235473   16.38025792235210
H        -2.57310288204437    0.25234933771483   16.29736421891326
C        -1.79123334695419    1.96587938339205   15.28710143150788
H        -2.26797561903557    1.74653964394599   14.34072109285582
C        -2.14112551207666    5.41759856390249   14.26521248150311
C        -2.09113973233283    6.25902621962128   15.36890304051527
H        -1.25250281311157    6.20160377104903   16.04767171612476
C        -3.10831370833791    7.16939990351182   15.58982115644846
H        -3.06885621338531    7.82537798212172   16.44703271932624
C        -4.18012444964333    7.23962481674182   14.71287640699172
H        -4.97283849845613    7.95181252816511   14.88894778340773
C        -4.23643410291082    6.39578505200068   13.61613748084875
H        -5.07406191047833    6.44642416783651   12.93633214118345
C        -3.21940799079601    5.48362711274191   13.39499757648591
H        -3.23879864259351    4.81322050757148   12.54764263028845
F         0.76017060252672    2.19321526129554   13.58426965289400
F         1.19886222764059    0.79664404520470   11.50589502997253
P         0.85221938528820    4.17197681520803   10.06589916389727
O         1.19780916116505    3.53951664945590   11.37828397828580
C        -0.70712235538969    5.12930641548878   10.05245943354454
C        -0.63475748775551    6.43592952846613   10.52289587158375
H         0.32319234957537    6.83236822974777   10.83011963772860
C        -1.76987576822424    7.22428241274369   10.58673511958206
H        -1.70543953795285    8.23581319562449   10.96160431070559
C        -2.98684689971939    6.71617062522701   10.16431541849171
H        -3.87429889092701    7.32976023137773   10.21387306648361
C        -3.05934234953669    5.42319453217877    9.67298869522375
H        -4.00581366942022    5.02802752549565    9.33409677815937
C        -1.92614718118094    4.62862916143586    9.61374399885047
H        -1.99346141790958    3.62096360524234    9.23544191636454
C         0.97653423910458    3.08910765477138    8.61428647835913
C         0.34619533218189    3.38935772525840    7.41465982776310
H        -0.28781624937820    4.26156627534799    7.33863868357558
C         0.51712999013522    2.55510641153689    6.32367991834606
H         0.01905623531452    2.77952227554350    5.39155375079641
C         1.31704482574923    1.42900283626989    6.42915114910875
H         1.43904219726325    0.77523203866610    5.57804403739975
C         1.95435620192113    1.13714925018752    7.62487646578687
H         2.57380334114424    0.25679980287923    7.70675330860872
C         1.79169878832205    1.96958929218395    8.71807902836789
H         2.27057847612241    1.75112628136114    9.66358285443506
C         2.14223172901605    5.41926001873022    9.74037833917108
C         2.09389556264201    6.25852610912490    8.63496068713923
H         1.25603025204330    6.20007858484777    7.95531974624851
C         3.11182019741378    7.16789529298630    8.41338330390063
H         3.07368601513942    7.82220740746835    7.55484149667629
C         4.18271974211126    7.23920445972119    9.29136366477713
H         4.97602913720290    7.95059489369698    9.11476333598396
C         4.23740979465127    6.39742772040791   10.38977103452903
H         5.07437071992859    6.44887258917311   11.07033465239632
C         3.21962839554653    5.48627658517784   10.61161283244708
H         3.23774846437081    4.81743063443797   11.46023271905161

