75
CSD_code = VACRUO | q = 0 | S = 0 | Stoichiometry = C36H30As2F4O2Ti | MND = 6
Ti        7.54544329679738    1.98276046586605    4.03808271108390
As        8.19864537357912    4.18611536141365    2.13267075369503
F         8.22119342678901    2.09820479897810    5.71082481289376
F         8.78215943011371    0.79929912380705    3.62248047331421
O         8.73898841929258    3.51770786252881    3.53198010785235
C         6.39860823235678    4.95007254053479    2.02318921802172
C         5.37775056475921    4.30745630668258    1.34041415287495
H         5.57601834616860    3.36838963747563    0.83872549168051
C         4.10760276825939    4.86135349098767    1.33020627581333
H         3.30765712401225    4.35564401727888    0.80943342888243
C         3.85894367696155    6.05399813624185    1.98945193596349
H         2.86532440012400    6.47759625542423    1.98457525077122
C         4.88410657323601    6.70694025203775    2.65472402441705
H         4.69497578982893    7.63995820129865    3.16624942303714
C         6.15344933184791    6.15480064828554    2.66847440500324
H         6.97039338199978    6.65960996603770    3.17930720566095
C         8.62627852469057    3.19057390167931    0.51665271425987
C         8.31721250760437    3.73648842174616   -0.72383452233563
H         7.81250610002297    4.69818594863977   -0.77207089929743
C         8.64510926434532    3.04222167352689   -1.87580808072137
H         8.39871960024473    3.45401479725707   -2.84377484489468
C         9.28414736491372    1.81505675512550   -1.78536455884465
H         9.53364816717601    1.27375215242766   -2.68620004308344
C         9.59936250134522    1.27987683186137   -0.54699715076548
H        10.09341632769820    0.32186570498309   -0.48103507870885
C         9.27349649776790    1.96868218838083    0.61053988643315
H         9.48738050687158    1.55486424596175    1.59167515594509
C         9.38079043429879    5.74392923289085    1.88465456698189
C         9.04559411949957    6.88087207368091    1.15718132903533
H         8.05075670848331    6.97086087561649    0.73271534209502
C         9.97693046504172    7.89198990548221    0.98413961233910
H         9.71316616226110    8.77724854139553    0.42390203480711
C        11.24646132855347    7.76980174469620    1.52571579554576
H        11.96846583099111    8.56110112625795    1.38702887121701
C        11.59127997302673    6.63318518273922    2.23901712542296
H        12.58336365584043    6.53506631151380    2.65511992169414
C        10.66062677808064    5.62368196117131    2.41395271321298
H        10.89967398578753    4.72586828465961    2.97791301076586
As        6.89219719231660    4.18617054118425    5.94338967308325
F         6.86958738830987    2.09805883292258    2.36537799134101
F         6.30874937564207    0.79926569782432    4.45364199521029
O         6.35187832459629    3.51772576087192    4.54409279010846
C         8.69228860350312    4.95008887065157    6.05285555552770
C         9.71316662419128    4.30742665524601    6.73556301667945
H         9.51490066437221    3.36835170046969    7.23723659685878
C        10.98333272551772    4.86130088848644    6.74574735827246
H        11.78326348864822    4.35561753810985    7.26657656435709
C        11.23201043615296    6.05394200593372    6.08650075781242
H        12.22562073903995    6.47756813848774    6.09144428070991
C        10.20685490725177    6.70688685819526    5.42122019926122
H        10.39598446462767    7.63993475961837    4.90975290081861
C         8.93748428363595    6.15479373074504    5.40752620823639
H         8.12055967707095    6.65959423942345    4.89665284357332
C         6.46539220064919    3.19016187138948    7.55931467057371
C         6.77408301526616    3.73632094503997    8.79980060566726
H         7.27867623300585    4.69808285544934    8.84802061333473
C         6.44572433919326    3.04233132121095    9.95181698019617
H         6.69242369828605    3.45399321389652   10.91975503003255
C         5.80660781381509    1.81520323633790    9.86141173109739
H         5.55748029820687    1.27373697092223   10.76224435372928
C         5.49157544743548    1.27988371858019    8.62304912656892
H         4.99754180595475    0.32186419945205    8.55711434033194
C         5.81796266604052    1.96838339531914    7.46546716414910
H         5.60362606798851    1.55478200391182    6.48434900286450
C         5.71043582966959    5.74434474802952    6.19075227455888
C         6.04555943827670    6.88116488796736    6.91841674264796
H         7.04018475035921    6.97086949028482    7.34336937478876
C         5.11401308694667    7.89200663083039    7.09195461335647
H         5.37775603217223    8.77722230139664    7.65225705285103
C         3.84438080182494    7.76968305464263    6.55060525964272
H         3.12248365101995    8.56111817229326    6.68901831406966
C         3.49958150130106    6.63308656735775    5.83725845098235
H         2.50765552434340    6.53516112719675    5.42078182491795
C         4.43042542747751    5.62383526639794    5.66188035945629
H         4.19140453522321    4.72604287734893    5.09787081030560

