93
CSD_code = VACSUQ | q = 0 | S = 0 | Stoichiometry = C48H22F18P2PtS2 | MND = 4
Pt       -0.00027388676520   -0.00008572896105    0.00025634013837
S        -0.07121732788618   -1.54621819442186    1.87309177340510
P         1.27016624591601    1.49871488071989    1.19069334338070
C        -1.12350924950351   -0.73742966179565    2.98674082160839
C        -0.90226062650961   -0.85697554527301    4.36448541840274
F         0.13589591646955   -1.60032672541599    4.79263574063558
C        -1.71311265527601   -0.21617593617448    5.28565483767340
F        -1.46282456378734   -0.34789065315507    6.59329794348408
C        -2.77654005706145    0.57070701351695    4.87459644341519
H        -3.39587084059614    1.07908585027510    5.59295658210277
C        -3.02190929759775    0.68031852110246    3.51706723359222
F        -4.05294682092877    1.42296336856605    3.09264014845820
C        -2.22695103487212    0.02585034949008    2.59220174410201
F        -2.50951248672605    0.12685274289444    1.27741693151570
C         1.85950647483861    0.80839419162686    2.78967559433143
C         2.66048271120084   -0.32705695509567    2.65949083428106
F         2.90180444070117   -0.76801757069642    1.42197679848873
C         3.19993576961074   -0.99305993619551    3.74965254793562
F         3.98330740305563   -2.05750162856577    3.57860738474593
C         2.92171302434738   -0.52469961177122    5.03284417602066
F         3.45034826964342   -1.12452461271286    6.09398647788206
C         2.08197975236675    0.57216993125369    5.19390484192757
F         1.78866018367601    1.01586518562724    6.41635895656565
C         1.54142237966527    1.21140617855464    4.07910859609424
F         0.69401480257202    2.22490562992956    4.29276139050743
C         2.79256124803368    2.25197621886002    0.52768499732240
C         4.08314887869610    1.95340139142078    0.94737817215656
H         4.26371932648946    1.24852927998618    1.74387329943897
C         5.16666587968550    2.57203856158811    0.34736144258736
H         6.16511175367310    2.33180803438130    0.68072164078202
C         4.97706907413969    3.48673804941842   -0.67354349953666
H         5.82718778341595    3.95823392451398   -1.14284719058360
C         3.69168621992042    3.79979897448738   -1.08534981204194
H         3.53289215716004    4.51972948929451   -1.87409701674002
C         2.60614590700710    3.19161219682360   -0.48598354694744
H         1.60405925357478    3.44251769962958   -0.80436528862423
C         0.30204020636121    2.97561294266796    1.58842748446053
C         0.87452405652770    4.07699647234897    2.21958275246150
H         1.91690829729801    4.05299972044659    2.50744124235572
C         0.10194063244165    5.19132757075143    2.47980184082928
H         0.54090765080204    6.04387487055851    2.97593786272057
C        -1.23331024225737    5.21818782029465    2.10378190900553
H        -1.83150720638562    6.09219471680240    2.31324054643073
C        -1.79646427635418    4.13523660378262    1.45077391923545
H        -2.83076046851257    4.15922052540743    1.14401638865577
C        -1.02809403332684    3.01533763990400    1.18683862660560
H        -1.45304832937041    2.17859102745359    0.64422928365090
S         0.07072222202465    1.54624574207792   -1.87284130567822
P        -1.27027345104999   -1.49882171384247   -1.19055157357819
C         1.12300151919797    0.73777153343397   -2.98654538698793
C         0.90179893908228    0.85768681462294   -4.36428864298701
F        -0.13647660037703    1.60095428635611   -4.79224972150405
C         1.71287997330086    0.21737189942441   -5.28559097220759
F         1.46269090475087    0.34945379173468   -6.59322526110607
C         2.77647323489663   -0.56937869197295   -4.87472015765703
H         3.39600742118141   -1.07731589960657   -5.59321610696951
C         3.02173955644299   -0.67942959213931   -3.51720337130323
F         4.05292938109712   -1.42197735065904   -3.09296643666789
C         2.22658280741421   -0.02544385596142   -2.59218666206500
F         2.50905728210770   -0.12678697766284   -1.27741935366709
C        -1.85960289660336   -0.80855564128365   -2.78955331551995
C        -2.66082800423424    0.32672304831720   -2.65935630273099
F        -2.90240268185073    0.76748291272879   -1.42183091794412
C        -3.20020201493837    0.99276247252343   -3.74953146086658
F        -3.98369597263267    2.05711133842012   -3.57852907150706
C        -2.92171359280951    0.52456716396890   -5.03272938080284
F        -3.45031674597099    1.12442377955047   -6.09387686885838
C        -2.08175126245216   -0.57212194080882   -5.19379978869270
F        -1.78817950514299   -1.01562754882118   -6.41626733225696
C        -1.54118866308818   -1.21132653555424   -4.07898848108425
F        -0.69343384048547   -2.22455557865335   -4.29257927329152
C        -2.79257286479406   -2.25246268307592   -0.52767868649007
C        -4.08316815245481   -1.95428459520171   -0.94763030187037
H        -4.26382384825377   -1.24948807759274   -1.74417980262139
C        -5.16660965895423   -2.57325679157494   -0.34782078085079
H        -6.16506522545840   -2.33329349766625   -0.68133762629812
C        -4.97693411198349   -3.48795959267595    0.67306682626797
H        -5.82699960667031   -3.95972671999051    1.14219008316600
C        -3.69153421075243   -3.80067450114693    1.08506573682145
H        -3.53267082254661   -4.52065821234068    1.87374510492651
C        -2.60606728504906   -3.19209883961799    0.48596541833291
H        -1.60396335048403   -3.44269950433052    0.80452747783606
C        -0.30189845537240   -2.97555836014856   -1.58828718243119
C        -0.87421328678129   -4.07691288197833   -2.21964813064598
H        -1.91655556150179   -4.05292329843471   -2.50766354845299
C        -0.10151718510926   -5.19115369916685   -2.47989837801461
H        -0.54035412774182   -6.04366712821389   -2.97620465420353
C         1.23368284906873   -5.21795643203788   -2.10369228165623
H         1.83197245728493   -6.09190438782197   -2.31313498195129
C         1.79666404262190   -4.13503977908439   -1.45048077689957
H         2.83091237272870   -4.15900282751091   -1.14356094225315
C         1.02818113010820   -3.01521909699688   -1.18652532211089
H         1.45302459669100   -2.17850736372916   -0.64377805962179

