64
CSD_code = VACSUN | q = 0 | S = 0 | Stoichiometry = C24H33Cl2NP3Tc | MND = 6
Tc        2.79666794118561   11.15970909941441    7.79437859686649
Cl        3.35545972090089    9.73748657719350    9.56155702851153
Cl        5.19709431842214   11.29580187261036    7.27050222517282
P         3.03388469104424   12.74600750330518    5.98495966197110
P         2.79186982877936    9.08670613111274    6.53805792097598
P         3.09505966123735   12.81652825867198    9.51117449362896
N         1.09727024025289   11.24331430894408    7.83622322296926
C         1.51906923254441   13.60599905785118    5.43903011376585
C         1.37758759024098   14.98400827994891    5.34406960534078
C         0.17957440971886   15.53057044581837    4.91484233585483
C        -0.88457147733159   14.71145070482993    4.58202597592994
C        -0.75280371473159   13.33557499925065    4.68708681747042
C         0.44004465207784   12.78899925810628    5.11744818508990
C         4.21426153475785   14.12965664307568    6.19048380860238
C         3.59843674844101   12.06078557124595    4.38178608630588
C         1.81621238181278    8.98208246823035    5.00442091777216
C         2.33583067170611    8.65116598532362    3.76018822590427
C         1.50216344051502    8.59416980007364    2.65491843055439
C         0.15152876342460    8.86709957933940    2.78448983076359
C        -0.37016322873486    9.20842639193150    4.02327281294833
C         0.45880443822969    9.27177505571925    5.12686954014155
C         4.40934219529529    8.35894612742848    6.12615540887487
C         2.01954390812704    7.70556236392523    7.46134097295935
C         2.41718259635246   14.47564702355291    9.18951196295340
C         3.07262099458527   15.66855620953345    9.46593703789148
C         2.45095836575182   16.87584621722733    9.19200712547244
C         1.17645665117038   16.89752232118970    8.65146858048863
C         0.52014852239077   15.70829910454760    8.37245759285762
C         1.14117976577139   14.50173271344047    8.63170591588782
C         4.79532730797708   13.06154009492283   10.11173965271081
C         2.20072287447674   12.41990114508424   11.05593248827949
H         2.18787364620933   15.64534065938492    5.60972578953152
H         0.07863293760583   16.60422964644029    4.84423931016713
H        -1.81663516706196   15.14440201588607    4.24909606573079
H        -1.58341081257700   12.69164383013691    4.43906625404114
H         0.55183780545873   11.72083529663787    5.23448250617707
H         3.38847395555611    8.43774452456345    3.64505701599899
H         1.91104152506716    8.33387166904968    1.68920842233842
H        -0.49382715996034    8.81787501687648    1.91997889795236
H        -1.42259234407811    9.42816552638042    4.12464112092224
H         0.07915042525594    9.56077092974107    6.09917087391946
H         4.06740912473207   15.66413618180865    9.88813072467363
H         2.96485268163453   17.80260341010776    9.40398901458298
H         0.69670224197327   17.84269631419183    8.44378176388073
H        -0.47047766497626   15.72272433394943    7.94373503242478
H         0.66225654028834   13.55868976908413    8.39298235540990
H         4.24498496455427   14.71580670979706    5.27203055953425
H         5.20118705869585   13.71481365213624    6.38440107426831
H         3.91376562240466   14.75739036254533    7.02910618559122
H         3.67786619807283   12.86176232279486    3.64645784255526
H         2.88595872558309   11.31245497058942    4.03576836918032
H         4.57297175468675   11.59818789396848    4.53040079551088
H         4.27886079352598    7.36823440417759    5.69018813250829
H         4.97243370263429    8.27999377415521    7.05723360946096
H         4.96106698185413    9.00844099222680    5.44851540684207
H         1.92202985348982    6.83522487149533    6.81152239650273
H         1.04051379960902    8.02365769430490    7.81667112341549
H         2.64049923874826    7.46747758532461    8.32365771276209
H         4.80394741275891   13.68843804872926   11.00358583776444
H         5.19146664692292   12.07452772827325   10.35681250342189
H         5.41374870183177   13.49717746937247    9.32777095238462
H         2.30554031727344   13.24020658244511   11.76699604541484
H         1.15070837567326   12.26469583851744   10.81039874480775
H         2.60579708935286   11.49890866171500   11.47315498511202

