93
CSD_code = VACTAX | q = 0 | S = 0 | Stoichiometry = C48H22F18P2PtS2 | MND = 4
Pt        5.57029193095080    6.39995384785865   11.45036693505189
S         3.41622689003118    7.20795230028021   12.14535829297459
S         6.28749826951213    6.43190247611953   13.74284170143160
P         7.74883874860929    5.67249681153062   11.06852508040252
P         4.67966284081462    6.17783965002757    9.32950017814987
C         3.14709385731594    6.61922768041558   13.76249479840577
C         3.35654856187134    5.28686314800456   14.12490720368695
F         3.82216213576038    4.43213839903575   13.19377885680710
C         3.10574380180442    4.84288857469402   15.41133165538097
F         3.31879755759576    3.55560083935781   15.72003831842489
C         2.61284232234753    5.70389455999345   16.37634084873700
H         2.41991813464273    5.35937126419542   17.37759535308735
C         2.38694596974936    7.02391765943135   16.02770552917722
F         1.90777061427640    7.87255413294126   16.94515816896734
C         2.65459487814418    7.48140334870058   14.74617452417827
F         2.45251741775494    8.77548097706935   14.44264204287562
C         5.90338287310715    8.05760990138062   14.22359151131167
C         5.55145134216438    8.31736186431057   15.55328852922760
F         5.51022424216819    7.29634375137292   16.42770467252124
C         5.23395817961761    9.59876460899874   15.97379360820365
F         4.90822930845586    9.81215459001823   17.25401773545079
C         5.24541572594310   10.66439510033060   15.08966756687757
H         4.98211673995987   11.65476418074721   15.41856185202621
C         5.59360420272795   10.42220314988945   13.77214771895647
F         5.62939942629657   11.43770109517729   12.90214156508421
C         5.92715101204852    9.14701664491780   13.34800391610222
F         6.28430997776794    8.93695755503163   12.06080094225477
C         8.93892306421565    6.59552158007887   12.11745421297920
C         9.52497536533091    6.15028581992617   13.29866087719979
F         9.39433905457528    4.88416006218489   13.68798055992598
C        10.26385311045709    7.01156452465346   14.10596355469132
F        10.82702228806377    6.55777748488233   15.22567044537795
C        10.41810527159355    8.34827660104305   13.74808623000817
F        11.12134710273889    9.17166857272235   14.52219867775554
C         9.83711531204574    8.81855850165627   12.57226722858399
F         9.98519981663136   10.09409586742080   12.21426585545592
C         9.10880560484366    7.93846250685559   11.78508823281166
F         8.53658407974687    8.37171168644661   10.65832300494915
C         7.86730280846263    3.92902423186418   11.54379562577088
C         6.71185306190854    3.29128763841493   11.97574670381649
H         5.79518731648480    3.86028161818192   12.07027093536376
C         6.74096953888693    1.94358631516803   12.28528570885505
H         5.84314851217019    1.45410478854627   12.62955405077280
C         7.92238612053396    1.23366764726698   12.15656365391709
H         7.95034976632204    0.18275945837664   12.40249428707056
C         9.07398131336229    1.86652983753200   11.71087359046038
H         9.99230096172295    1.30771717440770   11.60961462251080
C         9.05093967492447    3.21062869101106   11.39531850564826
H         9.94561356659628    3.70701056629268   11.04448178260777
C         8.59662891869904    5.57748299465893    9.45655808178143
C         7.94116147897493    4.77991718457070    8.52155132244270
H         7.02431998869641    4.28462415412014    8.81841522697635
C         8.45837470035923    4.61566124322324    7.25326325535532
H         7.94514896416485    3.99572198663175    6.53351938092485
C         9.64139150499529    5.25021306530344    6.90667506585697
H        10.04675161394551    5.13275549844145    5.91338882731035
C        10.30910900190087    6.02382228869738    7.83957706389065
H        11.23996286487249    6.50336792428299    7.57632757946342
C         9.79499499814467    6.18830129194393    9.11538718061661
H        10.33887650149556    6.78513932289127    9.83232388691725
C         3.15611859544735    7.17863389422383    9.08886401067571
C         3.32531049453414    8.52948907105322    9.39101976040623
F         4.54729917582213    8.91833689792731    9.75623178177965
C         2.29019207530004    9.44771296383497    9.30557462493140
F         2.48404410756955   10.73260622894788    9.58957683168364
C         1.03170079519554    9.00444959651020    8.89937621637796
F         0.01876334793290    9.86205170018363    8.80332874101607
C         0.84245482896080    7.66582700228407    8.57126499292768
F        -0.35376444779482    7.24576685749753    8.15366891754699
C         1.90183117437981    6.76632980837835    8.66179310025752
F         1.68682246775272    5.49863043034467    8.29580412097944
C         4.15745605606277    4.45709368030974    9.09764720419045
C         3.32463366264390    3.95155205176901   10.09522500234627
H         2.96587539801422    4.61686618650284   10.86828345628042
C         2.95318187199259    2.62239769412255   10.08497796799753
H         2.30565152372727    2.23880283353571   10.85819776687736
C         3.42060001181700    1.78358772079232    9.08538971131414
H         3.13582702908100    0.74238041356790    9.07630385269973
C         4.25302212771741    2.27990055838899    8.09664471140056
H         4.61504623024873    1.62650023799138    7.31661896000817
C         4.62876018736302    3.61230313832266    8.09999356359440
H         5.28001352369019    3.98915758144469    7.32489398092696
C         5.53100097286791    6.74107544248170    7.82434638682963
C         5.03406275061557    6.42774975061296    6.56217057998010
H         4.12966677663175    5.84331095238788    6.46380458243797
C         5.70012528589853    6.87827942854152    5.43722287207937
H         5.32404699217858    6.62880027418055    4.45613886536132
C         6.84093530664999    7.65567141754897    5.56673206026599
H         7.35627150226424    8.00191715322371    4.68351093294750
C         7.30551461393057    8.00749187950139    6.82319983156807
H         8.17458789274383    8.63855724856501    6.92541866818359
C         6.65036939202769    7.55340041751703    7.95317051295226
H         6.98455806749995    7.83862324597674    8.93968110733800

