67
CSD_code = VADFAJ | q = 1 | S = 0 | Stoichiometry = C31H29ClN5Ni(1+) | MND = 4
Ni        3.79381700556629   12.45135083605273   18.48165679983308
Cl        2.51386758139901   10.88035957398148   18.85931083601638
N         4.57479263064833   13.49487641509591   20.96533616520129
N         4.92397011978596   14.05733524705950   18.17690949572897
N         4.88840670162630   11.39423722233438   21.05264056475168
N         1.98889636939136   12.57035542160543   16.10773097334548
N         4.05131545812849   12.89170505474615   15.70962177029042
C         4.44968719546015   12.35962400097032   20.24517230397588
C         5.79710566938069   10.79056305672227   23.12117123028455
H         5.42570574645702   10.85011786964040   24.14260447514594
H         6.88913230914029   10.81015513709213   23.15464012282328
C         5.09750046055050   13.23294077843890   22.21112875155945
H         5.26659996133641   14.00044002571640   22.93681441340078
C         2.08027645996211   12.84326994964726   14.77293243136171
C         5.29320955079723   11.89191580203903   22.25931158102755
C         3.18137508627545   12.59947429582920   16.70195064234474
C         5.12892379038712    9.97186131863171   20.90444904616106
H         4.26176365295164    9.50492391981287   20.42553567550165
C         0.63555296025308   12.43251193068457   16.59587338448143
H         0.42467588048056   11.37171346278772   16.77290729422393
C         6.33551440717400    9.79146144210397   19.99908620763199
C         6.19883639687080   10.15855621890754   18.66252879717969
H         5.23590113004629   10.53655202371893   18.30248059132713
C         5.73963256867593   16.16383301048693   18.92803492935388
H         5.77536580645443   16.91273193742150   19.70269816842091
C         4.24542985909154   14.78370361965934   20.41014039199193
H         4.49051053729961   15.56370113077000   21.13223683996826
H         3.16514305369963   14.81875483744130   20.19874957273620
C         1.03785832366867   14.45790670579574   18.02970224177285
H         1.58841121808903   14.90554668805468   17.21180454769520
C         0.45625745380095   13.20224101924308   17.88138586681382
C         0.72488720218556   12.83587402038576   14.16420210810394
H         0.54816109392872   11.88618083200751   13.65380966244200
H         0.57892778604593   13.63955712894135   13.44478454440693
C         0.88988607056751   15.16093148595504   19.21394240818388
H         1.32470684150965   16.14688818410708   19.30938674731033
C        -0.27441157775666   12.66480626772828   18.93193097418586
H        -0.71916913113933   11.68735102231825   18.82782952165950
C         7.56231057255907    9.31834317905034   20.43960201869070
H         7.70872414748938    9.03124978488761   21.46848585890631
C         8.62557941007936    9.19543676444469   19.55921984219558
H         9.57209014484142    8.82003459131915   19.91670432925347
C         5.27128500947550    9.54598002939547   22.37639810416956
H         5.90817341632392    8.67547946849113   22.50135244020863
H         4.28168317283106    9.29222713653364   22.75757720506060
C         4.99812369092625   15.00604965099619   19.11617969898854
C         7.25868917497107   10.03203342717152   17.78462435851861
H         7.13751983847844   10.29262522526020   16.74264626892385
C         5.58385440300706   14.22280359968050   17.02553199375100
C         8.47723200652833    9.54636687385941   18.23055350581876
H         9.30326943262650    9.44134106465546   17.54434425285788
C        -0.41748869460964   13.36727325664342   20.11539065204414
H        -0.98247326430633   12.93766688094651   20.92784439805355
C        -0.18448814982859   12.97927427774434   15.40328207959118
H        -1.12433342227004   12.44619069055824   15.28760635630078
H        -0.40991623592932   14.03275851570853   15.57720156183938
C         6.35000769742990   15.35144219387599   16.77589435806986
H         6.87246196221320   15.45301005548184   15.83842823205607
C         5.44748258552121   13.13976930931478   15.97605159660230
H         5.94675964289204   13.43670382361552   15.05289465537099
H         5.91597869694268   12.22207831610358   16.35654554937473
C         6.42975060307134   16.34093655697168   17.74133787730258
H         7.01525041833487   17.23048141434936   17.57174730794753
C         3.39445616702451   13.05142232987190   14.50999992804232
H         3.90676519884650   13.28285734612377   13.59989700386657
C         0.16608943965085   14.61413322958981   20.26102757368817
H         0.05403930469043   15.16192211342371   21.18469891386541

