59
CSD_code = VADQOH | q = 1 | S = 0 | Stoichiometry = C28H28N2Rh(1+) | MND = 6
Rh        7.96805481357221    2.83109526492002    3.96870997751640
N         6.40856018678563    3.98334521396743    4.93217935027478
H         6.61556604047470    4.97839161570949    4.81327849900172
H         5.47734120831308    3.79277627085829    4.56206347107952
N         9.40029256257116    3.66516315134222    5.40007284576603
H         9.25808775133586    3.10001936293036    6.24176824680820
H        10.36099999641973    3.54057404447567    5.08008845373031
C         6.47371352394408    3.62924941567646    6.32104256028263
C         5.67024479165708    2.58359015280074    6.80928378715077
H         4.99044971999169    2.07960101351804    6.13767464457202
C         5.74695186652398    2.21942517725481    8.12367826433007
H         5.12775148690891    1.42129801330836    8.50299705525937
C         6.62564378077591    2.87666251941590    9.00956419404879
C         6.72099629443471    2.51188392761829   10.36844321532014
H         6.09642284916592    1.71016174880901   10.73292624598059
C         7.58635930074105    3.15854436927232   11.20572055459293
H         7.65366967491548    2.87496151845487   12.24448027921551
C         8.39840290216673    4.19589586497488   10.72065624700506
H         9.08002007548319    4.69380697192631   11.39291755496886
C         8.32941140120668    4.57776244651113    9.41010283291016
H         8.95231325869486    5.37871042591540    9.03994861134672
C         7.43820980896825    3.93653042606448    8.52295286283405
C         7.33151478480587    4.31217737873572    7.16111563229709
C         8.16288099127127    5.39649706378389    6.57969257102625
C         7.90794996483045    6.76177936654390    6.86092485660000
C         6.87698752875096    7.16797486655596    7.73512642961317
H         6.25890815665581    6.41603517612559    8.20273362558175
C         6.66848531166148    8.49382291710388    7.99310851273281
H         5.88153272768095    8.79545359578653    8.66708388001535
C         7.47184930078929    9.47357644156825    7.38894378892451
H         7.29262111275007   10.51446616051677    7.60840839025390
C         8.47037366230059    9.11167973576319    6.52870015983008
H         9.09017398138368    9.85942135945171    6.05734915234718
C         8.71393770211014    7.75334593430181    6.23874888615736
C         9.73279638017109    7.35464003741513    5.34879839809549
H        10.34027356110997    8.11358421516754    4.88080141360173
C         9.95756068629664    6.03372886637197    5.08313962064980
H        10.74043234052325    5.73403731761809    4.40158288488787
C         9.16693337578320    5.04823474719503    5.69831949814909
C         9.51989913615713    2.15203333694636    2.65566526805449
H        10.38476687768467    2.80100594245337    2.79734860026010
C         9.26857823689676    1.18610329648531    3.62394406792835
H         9.96904898240238    1.10018140708398    4.45781351622498
C         8.44797538792321   -0.06267505494376    3.41638590229299
H         9.04964533531755   -0.80282526971239    2.88158698201699
H         8.22224031046431   -0.48284911313708    4.39929969709730
C         7.12873116866547    0.19180034720888    2.66513850902738
H         6.40620550061338   -0.56632879460554    2.96750537862446
H         7.26925479654502    0.09303679496433    1.59001417116050
C         6.56320002134057    1.56008824746481    2.97029534380538
H         5.64882612770814    1.54039509766921    3.56382162318190
C         6.80610690358183    2.68819943867173    2.19338117869795
H         6.05574147531576    3.48201373818657    2.19128181249184
C         7.71284451326164    2.73630099372562    0.98914164644577
H         7.89016880207434    3.78553021312747    0.74313463591071
H         7.19767280743239    2.28888171019206    0.13475892187582
C         9.06552536804799    2.03905896941196    1.21844623402565
H         9.01216387500590    0.98752253056160    0.94138782062072
H         9.81032950963965    2.50542207251663    0.57352123550437

