83
CSD_code = VADRIB | q = 0 | S = 0 | Stoichiometry = C26H46MoN4O2Si4 | MND = 6
Mo        4.61607324760805    1.63324562281362    4.05259298988345
O         5.82872148314956    1.68142159066099    5.16915814907140
N         5.37175439264254    3.03363324376446    2.79320478128401
N         6.08999575983574    0.96464486838878    2.53598662317041
C         6.32181352112295    2.23041252740143    2.34849591415326
C         7.57070420532927    2.75077372731047    1.74697471708420
C         8.67081758110793    2.95061861374638    2.57309056546812
C         9.85578790149047    3.42838015848263    2.04217708552396
C         9.94839058417594    3.70545256768487    0.68768176541608
C         8.85304252176811    3.50550203993173   -0.13596883446070
C         7.66416494511955    3.03023849205525    0.39010283770508
Si        5.45546521382039    4.75327703172159    3.09808922846347
C         6.26969337209912    5.73359471926967    1.66860261142237
C         3.63131928556772    5.26478786893072    3.29086371569780
C         6.43347496755573    4.97591356765550    4.72951760674279
Si        7.16716582202208   -0.37051916901998    2.29339318133469
C         6.04127805082223   -1.90750491462991    2.15446542010794
C         8.33124724503269   -0.49111328974294    3.80691816226350
C         8.20109712505258   -0.25874189639591    0.68382356410483
O         3.27938023163792    2.37133284205628    4.67554581673662
N         3.36917357102384    0.86427536724260    2.38710759677688
N         3.93994666382583   -0.27552001707584    4.18658187756763
C         3.09320403706974   -0.12603987427305    3.18343513001944
C         1.89771479919077   -0.98631773266375    3.03132518382191
C         1.95086710148213   -2.19004483455932    2.34121249837243
C         0.80895235666741   -2.96137430342322    2.21063438420829
C        -0.38551007059111   -2.53711754669698    2.76874676536866
C        -0.43933385808718   -1.33693301177884    3.45913144000128
C         0.69829749439258   -0.56043467799198    3.59042344931548
Si        2.40232705239533    1.51005671366218    1.10259617671940
C         1.07669032424322    2.66090955466183    1.86305711590522
C         3.61842165004175    2.48260367564914   -0.00407007517346
C         1.56058454669187    0.17841338038750    0.01154769768348
Si        3.72792229066623   -1.19040768553840    5.66142996233017
C         5.48583849348740   -1.28742852424837    6.38718865843525
C         3.03805038223113   -2.95189308042810    5.36343145783567
C         2.55175305474077   -0.17084089485776    6.77719885993832
H         8.58060362250578    2.72789957824379    3.62632826676178
H        10.70977364201192    3.58507653066586    2.68474072805328
H        10.87432347382715    4.07728860330717    0.27434545260534
H         8.92575895552377    3.72144385166972   -1.19172054713014
H         6.80696948935044    2.87407942510001   -0.24725423284908
H         5.87927967805114    5.44495375624851    0.69804002993429
H         7.34677224594869    5.60788102214452    1.64131087570889
H         6.06696606756409    6.79071682654110    1.80059301868905
H         3.53034590726541    6.25322750145921    3.72646831017859
H         3.14874499669059    4.54811143279372    3.95317942105162
H         3.09696155538326    5.26223463185833    2.34526612190232
H         6.09208947384904    5.83288407769022    5.30129829051715
H         7.50162243760652    5.09384464497472    4.56528345040696
H         6.27610460248039    4.08172315611730    5.33812178083695
H         6.62617319480531   -2.81420436977637    2.03394743217471
H         5.37331321642223   -1.82807721899607    1.30063768203942
H         5.43030770777922   -2.01380440049861    3.04624875852626
H         7.86582938967208    0.01163650004992    4.65174204399338
H         9.28974347906105   -0.01438466691646    3.62034084785740
H         8.52728091124485   -1.51908074237634    4.09517288880768
H         7.59099828523019    0.01800194990399   -0.17064178201637
H         8.64949969641797   -1.22272354173678    0.46657535656280
H         9.00494710562804    0.46626284648415    0.76090955616487
H         2.88485132586744   -2.51674853984257    1.90955472406255
H         0.85041310026451   -3.89688402474731    1.67245451905030
H        -1.27458847262955   -3.14163170482542    2.66593405601440
H        -1.37069866256903   -1.00649844801278    3.89517283342279
H         0.67464562173273    0.37866077302715    4.12390551682172
H         0.89829405221706    3.54227471820353    1.25508537537316
H         1.41511285389701    2.99112426093506    2.84260174035767
H         0.12464879208281    2.15317073874904    1.99175078405852
H         3.10168886439108    2.96266884131015   -0.82940598626387
H         4.37633774237696    1.82661900936523   -0.42438975119916
H         4.12583911944934    3.25131956308992    0.57160671388493
H         0.71578859988601   -0.28696181040787    0.50898892460963
H         2.25136535319753   -0.61099670312842   -0.26868575057131
H         1.19288972333133    0.63080377686870   -0.90370043296803
H         5.92598184680258   -0.29291781168705    6.33870440130581
H         6.12707777302452   -1.96691973718244    5.83329348723535
H         5.47997113105539   -1.60756342672395    7.42376964892825
H         3.55672294959709   -3.46570991883507    4.56053519837395
H         1.98038515901167   -2.94729887891262    5.12272542338095
H         3.16593170814211   -3.54169092163974    6.26443527532495
H         2.68169801108871    0.88442266999742    6.52376303915381
H         2.77726613430655   -0.29060919970220    7.83199823841392
H         1.50618079271146   -0.43088134097703    6.63237419015738

