60
CSD_code = VAFDIP | q = 0 | S = 0 | Stoichiometry = C21H34CoO3P | MND = 5
Co        6.67055973910435    3.50985537639519    2.01316190735854
P         4.54980088744652    2.69624375392316    2.79413572828280
O         6.28297553680323    3.03047967681196   -0.81210791026815
O         6.28419645134506    6.38027057555045    1.77103540439413
O         8.13978455175846    3.74804158932555    4.49370795131186
C         6.42934123907164    3.24009700251769    0.30516093563600
C         6.41693198836595    5.24678808437442    1.87537959963391
C         7.54535614929426    3.66695135365021    3.51757627075813
C         4.55621894978177    0.92208626308745    3.36865677533041
C         5.60879842000230    0.75582022660375    4.46559434813245
C         5.64062470433104   -0.68295874179546    4.97166597675993
C         5.94889588622162   -1.63611918481550    3.82248289440728
C         4.91070720144760   -1.47675986582104    2.71753210578930
C         4.86349049934387   -0.03447836728179    2.21679988506911
C         3.28046640858695    2.69222942181108    1.42075043307214
C         3.09976256511810    4.09365923791480    0.83437686057166
C         2.26729078199176    4.02319404734424   -0.44317220885614
C         0.90476097856979    3.39922335077540   -0.15741350459826
C         1.07222032720922    2.01890976520706    0.46977880715825
C         1.90832391551527    2.10458528136933    1.74690920607526
C         3.66389933731120    3.63146015656924    4.16149958117197
C         2.75756562192730    2.81192929825575    5.08177796422545
C         1.99865081564035    3.74634499727273    6.02403110283591
C         2.97193003503211    4.55966712249792    6.87017782280641
C         3.90941862205145    5.35832935895511    5.97088848781744
C         4.65243963161791    4.43399350438870    5.00999313513186
H         7.39273698273436    2.25215367106640    1.92028471276119
H         3.56800672059681    0.68441297236210    3.77746880082474
H         6.58859806809446    1.01486080706312    4.05785671122901
H         5.40697075264742    1.43567137634184    5.29609933143928
H         6.39717936962156   -0.78096838980323    5.75267409939000
H         4.67213030852428   -0.94010325779823    5.40919142369297
H         5.95662270965289   -2.66718035824833    4.18144928503637
H         6.93994759441252   -1.41119563649475    3.42327928966032
H         5.14599273923002   -2.14331416735082    1.88542605542833
H         3.92681824527622   -1.75853442273786    3.10255515098134
H         4.10288598727633    0.04432235163127    1.43802324921690
H         5.82728417173228    0.23178828637813    1.77661211606639
H         3.75025678296285    2.07305682291167    0.64355228946815
H         4.07320445350750    4.53909654185942    0.61443427951344
H         2.59144234693363    4.74148659962301    1.55286409876647
H         2.13948036855694    5.02599450720389   -0.85576884349109
H         2.79626158432974    3.42159844783729   -1.18587333631478
H         0.34797267459796    4.04302348970326    0.52795590325280
H         0.32971809061704    3.32045516616824   -1.08186953069428
H         0.09312017988500    1.59353024659092    0.70083129190215
H         1.56567032547326    1.35377616321730   -0.24283202613828
H         1.39047170867510    2.74759077487619    2.46080777199436
H         2.00265236647121    1.10843086423608    2.18241826578780
H         3.04041981179680    4.35563365789677    3.61912416958623
H         2.04120682266286    2.22386312969959    4.50756942618307
H         3.35642968408338    2.12625987517076    5.68286808618021
H         1.37017689033837    4.42381969223818    5.44052149515758
H         1.34371465739628    3.15770578480408    6.67012172589015
H         2.42134027147317    5.23423206335335    7.52863288942075
H         3.55838021366885    3.88450541567400    7.49764089970654
H         3.32930352254492    6.08519366364765    5.39665654031299
H         4.62911957038945    5.91126512110655    6.57749879452031
H         5.29672709486851    5.03158877121028    4.36041738694506
H         5.29134568408316    3.75513668368361    5.57962863631241

