56
CSD_code = VAFFUE | q = 0 | S = 0 | Stoichiometry = C18H28Cl2NO3PRuS2 | MND = 6
Ru        5.63769674788534    7.98260517754425    7.16546934213801
O         6.86065572511198    9.47893730409864    8.31170213526374
P         6.40178693148846   10.01118442317926    9.62597579850102
C         6.02757081372853   11.77919022474818    9.49577660198895
C         6.02022302908779   12.33982332777516    8.22497714937399
H         6.23618273098303   11.71275203843257    7.37021042602030
C         5.70930049963024   13.67933195417237    8.06835114108156
H         5.69605592052101   14.11563670585893    7.08123239089420
C         5.41006900495771   14.45331376437924    9.17768020194249
H         5.17123433480959   15.49958677291487    9.05731265614006
C         5.40494074842169   13.88886833382774   10.44485422551972
H         5.16037296932641   14.49411141114875   11.30531451072349
C         5.70730258556767   12.54950003239743   10.60749375101839
H         5.69379672214474   12.09889917623733   11.59029524063221
C         7.67133585272420    9.69438026537273   10.88403816141047
C         7.97701088780392    8.35698157822203   11.11526465795883
H         7.44365826535017    7.58481797008803   10.57439255034683
C         8.97125484098913    8.03031153584115   12.01935138401316
H         9.20918020866240    6.99356739679327   12.20341097703047
C         9.66093677345113    9.03244463027300   12.68432300554166
H        10.43677776867497    8.77661585583489   13.39081110081811
C         9.36626389214736   10.36337917405275   12.43751785450665
H         9.91433049046581   11.14272930953918   12.94637843379641
C         8.37284871250553   10.69939728386590   11.53339275834539
H         8.14861556730871   11.73644737824391   11.32820724066142
C         4.83830566934944    9.23372054949295   10.22078818357209
H         5.02763224819031    8.16380658391297   10.36163868971090
H         4.56611906130627    9.67665233450135   11.17865553582602
C         3.73458733637828    9.44177889543066    9.18005188843996
H         2.75658702036205    9.47611986080594    9.68140943653155
H         3.88503082640395   10.39527930672034    8.65524465813284
N         3.76659564878967    8.37596470423752    8.18580729300174
H         3.09420268337663    8.56160568344124    7.43538431190171
H         3.49596984977184    7.48231129621913    8.60922537763963
S         4.55590184845913    6.47798239910737    5.93767918644714
O         3.15064219993749    6.41148396055301    6.33021767339963
C         4.58418365519714    6.73610060101673    4.14542539738760
H         4.23495471468086    7.74723466099240    3.96041650877412
H         3.92178938286198    6.00907369229942    3.69151981392926
H         5.61065200547838    6.61923481288374    3.81842651135744
C         5.18254848566679    4.77676086999064    5.98214394328728
H         5.20389205924739    4.46218347717180    7.02091760361388
H         6.18230332933097    4.79004045571028    5.56363657016868
H         4.50544350642979    4.15615852566103    5.40784228477279
S         7.56412268162557    7.60994822273942    6.13368911147766
O         7.53162225472439    6.58179854268289    5.09759842458538
C         8.30241381859778    9.08750852948492    5.38467776643050
H         7.58346580299232    9.47833317310663    4.67112069153473
H         9.22652110811593    8.80955506055506    4.89189189380561
H         8.46212069196032    9.80524711122697    6.18196130296509
C         8.94264484947711    7.18786772154093    7.24123428122785
H         8.67805007452926    6.26746009589269    7.75201611247877
H         9.04128697501404    7.99568286812199    7.95867629182261
H         9.83999411985876    7.05444498828339    6.64895132993427
Cl        5.05141467807838    9.65873136237700    5.66168579365593
Cl        6.11179939008726    6.36311662899995    8.78183243652462

