67
CSD_code = VAFFIS | q = 0 | S = 0 | Stoichiometry = C28H32Cl2N2P2Ru | MND = 6
Ru        2.28740648962952    2.33977972967445    1.69023322435395
Cl        1.42764403997564    0.56665855276785    0.30969150450091
Cl        3.11929851804397    4.46145373382722    2.39434523207935
P         0.71995316291690    1.85391293086205    3.23472150148315
C        -0.82762698513691    2.30023729787968    2.31075422652237
H        -1.00525700930490    1.55083657472365    1.53494216593522
H        -1.69453579835783    2.36432661297777    2.97241382171607
C        -0.50759248255626    3.64517074987679    1.66107078827353
H        -1.37568133901128    4.02369146442836    1.10116756224297
H        -0.24766422214893    4.37072261509084    2.44136365612490
N         0.65899511531975    3.48969692547336    0.78641799106231
H         1.00200728322606    4.41055878745689    0.50572735457818
H         0.39103185358687    2.95776636513653   -0.04779976031990
C         0.53835012388400    0.11717568241335    3.73679151611313
C        -0.15884396822823   -0.82546562346740    2.99108662706995
H        -0.68454429266784   -0.53313604889920    2.09533676287849
C        -0.16530720030154   -2.15227646293420    3.38414365248684
H        -0.71168999140543   -2.87924303226745    2.80061931908887
C         0.52726752926788   -2.55146903606089    4.51401475391046
H         0.51854705888581   -3.58841662362558    4.81653271213022
C         1.23963753418325   -1.62005671692866    5.25218765733058
H         1.79163954290504   -1.92869350407061    6.12792292519321
C         1.25155444970645   -0.29615178663348    4.86151602695920
H         1.81107895553333    0.43388825610169    5.43252546749129
C         0.37466152767881    2.71995218847491    4.80435351906727
C        -0.60116092027374    2.23691009048189    5.67229686094713
H        -1.12142329910683    1.31795105786695    5.43577926550272
C        -0.89381756119185    2.92559157607110    6.83368465367405
H        -1.64957834332657    2.54788350596612    7.50759275328615
C        -0.21959789334887    4.09956997496078    7.13507674921984
H        -0.45049711812251    4.63317170936235    8.04581611705515
C         0.74583332070403    4.58577159128654    6.27043936053391
H         1.27016543653747    5.50141175284860    6.50171180927914
C         1.04368321620339    3.89977966686958    5.10491695926971
H         1.79773387078932    4.27226599463220    4.42493008619429
P         4.07625286906227    1.23049985232316    2.49238714037430
C         5.17015224492432    1.10840373947261    1.00353768968656
H         6.20684426912074    0.88053844820805    1.25910222410119
H         4.77217597012028    0.29169187404439    0.39059057840160
C         5.02903356270371    2.43876513791544    0.26913786947622
H         5.37507046413978    3.25202418197883    0.91829703562862
H         5.62963608424973    2.43932298510135   -0.65311623381335
N         3.61337593213564    2.67845191249085   -0.02111973047808
H         3.27681922671768    1.99107382365652   -0.70507844977782
H         3.50199368385495    3.61616052900764   -0.41057518775110
C         4.10355088818987   -0.48018923846648    3.11320602156078
C         3.37875949120742   -1.43085517384213    2.40002413150412
H         2.81585623975496   -1.12634156097971    1.52915922935592
C         3.36050026960111   -2.74747264472464    2.81695140028355
H         2.79654237341531   -3.48066680289812    2.25942101229611
C         4.05879763138784   -3.12371268951858    3.95299848561818
H         4.04288939656905   -4.15268642862030    4.28205215975083
C         4.77220246819917   -2.17912997430364    4.67130222483699
H         5.31348016892972   -2.47122474489936    5.56005155260905
C         4.79633623637336   -0.85915183295005    4.25710353908656
H         5.35248690620296   -0.12354594862046    4.82120107750286
C         5.03722422313842    2.12908434301844    3.74652861338628
C         4.29982046263806    2.51063747955690    4.86524374017775
H         3.25094559180789    2.23798670659827    4.90508131339428
C         4.88389081717233    3.24216436924322    5.87865705948508
H         4.29963013623169    3.54034503374343    6.73712384078127
C         6.21802478146876    3.60668568072554    5.78000494532229
H         6.67971236059423    4.18928522224280    6.56381674855108
C         6.95604966930744    3.23492887452659    4.66986787369258
H         7.99370449923718    3.52629218212359    4.58964123068385
C         6.37205054219310    2.49867639300715    3.65227633362775
H         6.96391993467446    2.22363171819492    2.79109970741619

