100
CSD_code = VAFHOB | q = 0 | S = 0 | Stoichiometry = C50H44ClIrP4 | MND = 6
Ir        7.20138208295894    2.77764797594608    4.37850315984935
H         6.83091802490558    2.74079121547865    5.86596676564015
Cl        7.72257003400855    2.97629616128132    2.00630949410108
P         5.76903420933247    1.00819017908836    4.00929309088957
P         5.03276965926468    3.55233644955115    3.95403314876969
P         9.32122060925775    1.80291332885082    4.58829076230072
P         8.82241350267654    4.49125837573559    4.40272473719192
C         4.26718292310651    1.94754079720236    4.06880926007686
H         3.46449688866060    1.69082584824396    3.37440718268074
C         6.11361796335011    0.06302697342898    2.49176142979055
C         6.84775033311391   -1.11848563410424    2.49959669096620
H         7.18960830511763   -1.53760716410947    3.43577261386969
C         7.14198436877162   -1.75133720710722    1.30678530467264
H         7.71244338014330   -2.66946481914207    1.31548478311293
C         6.71863026532951   -1.20820084879507    0.10430373295011
H         6.95839601401958   -1.70366508455367   -0.82573190753982
C         5.98935021419860   -0.03025854097497    0.09338999774935
H         5.66337576063594    0.39809262888667   -0.84366956974006
C         5.68516635775991    0.60229456471871    1.28303066211283
H         5.12684396070216    1.53067966557577    1.28497787969810
C         5.69075725202365   -0.31202298590856    5.25997366040448
C         6.84798263933560   -0.74614833949456    5.89319021760276
H         7.79342323764199   -0.27880737869785    5.63589139030878
C         6.78613465269233   -1.74672913791148    6.84455659455758
H         7.68718038154621   -2.08173846578561    7.33920699244397
C         5.56386140023888   -2.31480063411588    7.16817962104211
H         5.51330748989731   -3.09555294081534    7.91339567005554
C         4.40574404316393   -1.87668722594042    6.54587955248498
H         3.45432036510067   -2.31765062185847    6.80696574600011
C         4.46669943068523   -0.87397084107585    5.59511021105870
H         3.57246866207305   -0.50944387868511    5.10967493632211
C         4.72171183571420    4.49743826024314    2.42151106789868
C         3.55562806472965    4.25393598619563    1.70644307600464
H         2.85334040882288    3.51428060252325    2.06781196025439
C         3.29781061447028    4.95576981366428    0.54336095038602
H         2.39058460228837    4.76429767172792   -0.01211898070394
C         4.20342401477498    5.90055781516295    0.08817879296101
H         4.00395114494305    6.44224464939731   -0.82532923763551
C         5.36540043689979    6.14746457799847    0.80054589178836
H         6.07691284693622    6.88047235226056    0.44692198032283
C         5.62420695698008    5.44883114974272    1.96471093303230
H         6.53771394203509    5.62570311648569    2.51374351657060
C         4.20231217280837    4.64308484105500    5.15712625870721
C         3.38181098710652    4.08398417389817    6.12715563920512
H         3.23618522557049    3.01260064203665    6.12132271657396
C         2.77272096992168    4.89248173081551    7.06910147166553
H         2.12574480571191    4.45758070759283    7.81770805595696
C         2.99262939080016    6.26019824400927    7.05532850109899
H         2.51754102693813    6.89262556459998    7.79158042599006
C         3.82574364938038    6.81907864137609    6.09861474714699
H         4.00079028243909    7.88585810879082    6.09235438573592
C         4.43172954079416    6.01476287525767    5.15211308457455
H         5.08032245106486    6.44672225614107    4.40150205671989
C        10.18197548336836    3.31252213024962    3.92157369977322
H        11.15311374749580    3.52860868933582    4.37381754908636
H        10.26027820588850    3.23684205628786    2.83600846229687
C         9.96433395445669    0.37315433672728    3.67095205411788
C         9.95289784685220    0.38494441871238    2.27890881357376
H         9.61476368181948    1.26334337365602    1.74892931550144
C        10.33773530785087   -0.73989902796353    1.57402965811058
H        10.32804623925791   -0.72326564266213    0.49415754836049
C        10.72001589874790   -1.88749779885905    2.24858090484160
H        11.01782521200071   -2.76674350831165    1.69606836215151
C        10.70856218514884   -1.91233023724658    3.63384135606679
H        10.99359611152946   -2.81074550297340    4.16221743217025
C        10.32627131236953   -0.79099393949250    4.34543730929316
H        10.31333245157542   -0.81339891367310    5.42723532987779
C        10.16005001358318    1.66075949281149    6.20088101981593
C         9.42222092017017    1.65378954816067    7.37655447185728
H         8.34302360219952    1.68107053622371    7.32238853534871
C        10.06881993798426    1.61869324462456    8.59979197957012
H         9.49136273304446    1.61724443408964    9.51228337562000
C        11.45149992639502    1.58783609285112    8.65290745977691
H        11.95693936901987    1.56812924529596    9.60715382621856
C        12.19139149069191    1.57423736186198    7.48032851619676
H        13.27043180267029    1.53776878604032    7.52175425720394
C        11.55009122121503    1.60739797601123    6.25742383436274
H        12.12537260196337    1.58117825247757    5.34042315763970
C         9.54303736056215    5.11809998807748    5.95985481635325
C         8.88023800867108    4.92369575529693    7.16308024959134
H         7.90728850441979    4.45182578083805    7.15639762358468
C         9.46621679721174    5.32920566868237    8.34961573076636
H         8.95108374119469    5.17101252370219    9.28549087722211
C        10.71054153319290    5.93515026394194    8.33610134984258
H        11.17167803206541    6.24607940270427    9.26201515256992
C        11.36518630133086    6.15235163924509    7.13320550121408
H        12.33065610302507    6.63749723741571    7.12250090043695
C        10.78393955263693    5.74781630781474    5.94733164221809
H        11.28723128239460    5.92439139445750    5.00471539875072
C         8.95983895969572    5.96561916371532    3.35389709444322
C         8.40927643099460    7.14021914011762    3.86696178116531
H         8.00849662857082    7.13793303526159    4.87360880766782
C         8.37086521039893    8.28389224127453    3.09429738535425
H         7.94404438046096    9.19204244814623    3.49452703130383
C         8.87202324217855    8.26147134745427    1.80131448034831
H         8.83809612710057    9.15467521192423    1.19469004161529
C         9.40496928850687    7.09297228380662    1.28389017405623
H         9.78393919637267    7.07300939947027    0.27234765709937
C         9.44474511705914    5.94244636690099    2.05225166114495
H         9.82960716174436    5.02695179969881    1.62930530875822

