47
CSD_code = VAFLIX | q = 0 | S = 0 | Stoichiometry = C12H24I2N8Zn | MND = 4
Zn        0.00000830429847    0.00001544883017    0.30949142072054
I         1.14184159247309    2.04289812567712    1.22323807696728
N         1.64281166045580   -0.91555071492807   -1.05740226199571
N         3.85636460493441   -1.92017444459907   -0.91899986714617
N         3.30184882774617   -0.51326687889863   -2.79180266190353
N         2.30034330971226   -2.69348174997757   -2.58329408618183
C         2.76059663090102   -1.34511367032006   -0.17445043384911
C         2.20855580637062    0.04707314309520   -2.02980636756293
C         1.21766004067715   -2.11200473475040   -1.82191523736040
C         2.82256431993845   -1.69198480814555   -3.50466566436472
C         3.36723923857835   -3.07431932180989   -1.66304121752909
C         4.35174846828384   -0.92953564055529   -1.86638894577661
H         3.13223398466336   -0.47701800170480    0.37893764787034
H         2.38520107209591   -2.09136132034772    0.53380025687706
H         2.57073043974653    0.92947766319774   -1.49371752737523
H         1.41745327671497    0.35042217605558   -2.72538417210181
H         0.41569840742452   -1.82583458768963   -2.51137319512445
H         0.83570834145627   -2.86537484373233   -1.12733125549524
H         3.64812210411639   -2.12505550247844   -4.07333332261207
H         2.02972817813157   -1.39420587549548   -4.19740853765206
H         2.98374265840721   -3.81864376380261   -0.96039492742270
H         4.19120136921035   -3.50893382319681   -2.23283713392738
H         4.71056561833512   -0.05510201561817   -1.31728085156032
H         5.17769331778206   -1.36005949111230   -2.43639243372706
I        -1.14184857684211   -2.04291504054192    1.22323614744858
N        -1.64281000487400    0.91555404404928   -1.05740234508674
C        -2.76059598801191    1.34511452584103   -0.17445053216662
C        -2.20855294986018   -0.04707216411183   -2.02980535160281
C        -1.21766124082163    2.11200811760432   -1.82191634809671
N        -3.85636523594994    1.92017285953427   -0.91899988858205
H        -3.13223177997014    0.47701806559048    0.37893778467613
H        -2.38520149305489    2.09136331813059    0.53379993893727
N        -3.30184727474071    0.51326516458732   -2.79180198469887
H        -2.57072610501992   -0.92947699306638   -1.49371596883264
H        -1.41745029123794   -0.35042027680297   -2.72538328373105
N        -2.30034597109611    2.69348233008738   -2.58329496256470
H        -0.41569910886006    1.82583848999253   -2.51137413331448
H        -0.83571058951458    2.86537892518253   -1.12733272924466
C        -3.36724195412649    3.07431841192151   -1.66304165689960
C        -4.35174773522640    0.92953289361550   -1.86638861041468
C        -2.82256508166483    1.69198362126842   -3.50466577427755
H        -2.98374588101300    3.81864323146969   -0.96039550680495
H        -4.19120489818386    3.50893169753382   -2.23283732013964
H        -4.71056369950293    0.05509918997442   -1.31728018593143
H        -5.17769328810948    1.36005545671690   -2.43639231721254
H        -3.64812395026565    2.12505281644881   -4.07333369745731
H        -2.02972847450798    1.39420594728183   -4.19740857576852

