67
CSD_code = VAFLOF | q = 0 | S = 0 | Stoichiometry = C27H36BrCuN2 | MND = 2
Cu       -2.67574329543731    9.53549862658675   14.04956476549930
Br       -2.67573682451363    9.53549531463508   16.27660379111847
N        -2.31884158173423   10.54553276968110   11.31111878238790
C        -1.86243569629549   11.81466002685741   11.76379445685781
C        -0.49070824025462   12.01563453276998   11.93170516051323
C        -0.06718383483806   13.25168850027949   12.39980241402844
H         0.98436393460893   13.43305014917899   12.55483814585045
C        -0.97869999336950   14.25050177924386   12.68415133549088
H        -0.63215344358838   15.20433362163237   13.05236733488947
C        -2.33154900792763   14.03009115801579   12.51357838480264
H        -3.03214326177386   14.81389579624834   12.75440690043985
C        -2.80022368449960   12.80778146373820   12.05087144700436
C         0.50059473261339   10.90450441808982   11.67622731177525
H         0.00475701291780   10.10031174334440   11.12201753600258
C         0.96994302686091   10.33483418133680   13.01780952449481
H         1.65800697131477    9.50791294793154   12.85794836407087
H         0.12026943703331    9.97230264232310   13.59452220623759
H         1.47477643111053   11.09951269606493   13.60263899588618
C         1.68837917048358   11.37374683828145   10.83512278063555
H         2.30986942490345   10.52179649793820   10.56833055975977
H         1.34496118305663   11.85103924213259    9.91941947221010
H         2.30528764190892   12.08066918087733   11.38247888259861
C        -4.28346262318706   12.56026579216159   11.90812184209536
H        -4.44327243697889   11.58216711519541   11.44236144725717
C        -4.94156263531032   13.61161530198560   11.01266510455606
H        -4.89287619625984   14.59823221914534   11.46478952559161
H        -5.98858651933111   13.36176377623501   10.85647083540679
H        -4.44772570539441   13.65268956040804   10.04361714180345
C        -4.93524304074567   12.53148056430857   13.29267335670851
H        -4.46797931469704   11.77060884015170   13.91555649797834
H        -5.99498752751087   12.30322648595079   13.20622806670159
H        -4.82706947345962   13.49079006011563   13.79165076048649
C        -2.67574746125062    9.53550010037135   12.13263566514561
C        -2.45006257730486   10.17379461537734    9.99924199799770
H        -2.21504904850733   10.83859738707816    9.19410716441887
N        -3.03265682014291    8.52546820040996   11.31111943807230
C        -3.48906066163713    7.25634039057627   11.76379560581849
C        -4.86078783742032    7.05536367254508   11.93170569706406
C        -5.28431049054150    5.81930933702390   12.39980355739131
H        -6.33585804084067    5.63794606387935   12.55483876125928
C        -4.37279283741869    4.82049768270435   12.68415341420359
H        -4.71933801093853    3.86666530611357   13.05236936344382
C        -3.01994410995941    5.04091045272201   12.51358097588257
H        -2.31934874030484    4.25710699281185   12.75441006884038
C        -2.55127117139642    6.26322066893715   12.05087363658547
C        -5.85209221737390    8.16649243188652   11.67622731985074
H        -5.35625642936322    8.97068382561172   11.12201394613239
C        -6.32143684777211    8.73616594578253   13.01780944728270
H        -7.00950160157937    9.56308649776437   12.85794822092002
H        -5.47176171350675    9.09869922009450   13.59451877033290
H        -6.82626823895544    7.97148864195881   13.60264226173900
C        -7.03987893715660    7.69724739967109   10.83512751797713
H        -7.66136950606126    8.54919703391140   10.56833377600722
H        -6.69646343775795    7.21995154751527    9.91942508625261
H        -7.65678641805631    6.99032735290060   11.38248771882341
C        -1.06803256253879    6.51073794353692   11.90812366740538
H        -0.90822384529259    7.48883859768880   11.44236704964573
C        -0.40993355837413    5.45939226092388   11.01266163619514
H        -0.45862050929487    4.47277325330187   11.46478146249184
H         0.63709040491150    5.70924386040103   10.85646801458964
H        -0.90377100284643    5.41832284233239   10.04361372300738
C        -0.41624987883528    6.53951779479984   13.29267422141908
H        -0.88351308840814    7.30038647860516   13.91556139856814
H         0.64349426059644    6.76777314591637   13.20622805854336
H        -0.52442166700056    5.58020612982507   13.79164781421507
C        -2.90144152888119    8.89720757450215    9.99924241695424
H        -3.13645849849523    8.23240550767472    9.19410799438464

