40
CSD_code = VAFMAQ | q = 0 | S = 0 | Stoichiometry = C9H23N3S4Zn | MND = 5
Zn        6.97737390427525   13.50767825885975   13.33475707761928
S         7.13881153359273   12.19933328006347   15.34796527163848
S         9.16693714539422   12.44633233081478   15.48858344779855
S         9.46751453149773   14.45727932724948   15.25317319817185
S         9.04467886798954   14.82436611979393   13.28527593609333
N         7.51773779883086   12.16810288257422   11.53369675996445
N         4.86402589102103   12.64541973748318   12.71982617905442
N         5.66655076977444   15.42702571525413   13.09039994481231
C         8.48019763796141   12.79102476408828   10.62893414556896
C         8.10544346498181   10.94271507909641   12.07182627746358
C         6.27793121640969   11.88973121752593   10.81501269178485
C         5.11333248911276   11.57846317263868   11.75281097450197
C         4.14226285777452   12.10274522094667   13.86583743423849
C         4.12241996391839   13.75437910242754   12.12849964331106
C         4.26774349178712   15.03309692881349   12.95437325180985
C         6.11427582484926   16.17159188429236   11.91853861139153
C         5.86287378272311   16.25442550889503   14.27872588587815
H         8.07545486624053   13.72341682539044   10.24022311459604
H         8.72644162605991   12.12665963153154    9.79194052671328
H         9.38895242244322   13.02845108948120   11.17626698385513
H         7.44553340941376   10.49614647142532   12.81157841619163
H         9.04317853697536   11.18556393973644   12.56793082134766
H         8.30437348529969   10.21476928655954   11.27563980997359
H         6.03836079172231   12.77005290299665   10.21395068657890
H         6.40729165382128   11.03946713201113   10.12766091760603
H         4.21543771368791   11.37645656530796   11.14937523684674
H         5.34657174608901   10.67430644031812   12.31542835960934
H         3.96349262368512   12.88230969183259   14.59955076653173
H         4.74819178511853   11.34102803563639   14.34987215763197
H         3.18125733432073   11.66850048344460   13.56295817514278
H         3.05340404105095   13.50679154070552   12.04032204235285
H         4.50927686926447   13.93540589529049   11.12523388384721
H         3.67725931297475   15.83154747592903   12.48147281117763
H         3.86093214254468   14.86259080957667   13.95183729431297
H         5.94747067267441   15.58860052436697   11.01585394054638
H         7.18124282559303   16.36572364370517   12.00690760871105
H         5.58085481808632   17.12594218923393   11.82767391968151
H         6.91409339177152   16.52646290664598   14.35059129523324
H         5.59145027804798   15.69204418388152   15.17074340649980
H         5.26316648122141   17.17145180417279   14.23255109391027

