90
CSD_code = VAFPAU | q = 0 | S = 0 | Stoichiometry = C43H37BrO6P2Pd | MND = 4
Pd        5.80613063799297    3.91974787840383   10.17650472696090
Br        3.99451664432369    4.29167030095642    8.63204587783211
P         6.08008341149293    1.95268105473740    8.97035683176936
P         7.93789926801124    4.11271541996794   10.90444524122782
O         6.25852968087639    1.88706197171449    7.38041553113250
O         7.19852396655454    0.87776464539046    9.51418809910420
O         4.73567885383052    1.06962481556337    8.96353417372803
O         8.82717223903066    3.13767867141712    9.95707254100143
O         8.64165337396505    3.99442768120616   12.34594119885422
O         8.57549513863912    5.55752763633136   10.60871597667585
C         5.27787524733122    5.56898860289625   11.28248548531822
C         4.44009004215112    4.90299754308855   12.28776210388988
C         3.05118245977303    4.78832975149647   12.13000234123653
C         2.26989016797747    4.25887287914816   13.13691031984813
C         2.84561671964799    3.82413340950479   14.32110297334957
C         4.22016036728117    3.90056493038809   14.48273105901187
C         5.00738601194007    4.43319335372629   13.48124584656470
C         7.00929948218794    2.81394431185823    6.68118105754245
C         6.35211257553068    3.74475683662954    5.88788174129932
C         7.09539110389991    4.65065455277007    5.15127588449396
C         8.47933586377740    4.63141052058342    5.20757630902100
C         9.12629108706461    3.69707662527591    5.99885897905652
C         8.39555160667073    2.78511173240379    6.74174526194665
C         7.75686262768946   -0.13775953834223    8.77018419949654
C         7.00240201845711   -0.93765319282120    7.92511700440176
C         7.62254981124208   -1.94838480656752    7.21170958820428
C         8.98349226404962   -2.16659059657912    7.33946028410478
C         9.73152742412536   -1.36579894666793    8.18616314320069
C         9.12452633083929   -0.34842761784012    8.89916108495960
C         3.83596519655175    1.15460026595695   10.00056133903474
C         4.24442400239444    1.39951253218606   11.30660655721509
C         3.31038188856268    1.36043123796027   12.32910343474348
C         1.97534527934234    1.13268852350823   12.04762083973527
C         1.56941280112935    0.93613286255574   10.73818214260640
C         2.49544941318284    0.93843142213558    9.71195798501592
C        10.21315362887739    3.18352083333619   10.00131496685476
C        10.90168036786617    2.36405290685202   10.88343907507006
C        12.28565211205334    2.37243358317447   10.88125132034806
C        12.97681449687368    3.19851184786981   10.01144535490605
C        12.28188409622674    4.02210679323167    9.14173015394665
C        10.89824780617773    4.02147382177374    9.13479606441633
C         8.23052753220575    3.05515757583142   13.26773245663190
C         8.37854125382310    3.36237113378088   14.61406459174785
C         7.95438034962724    2.45736583917220   15.56983380874635
C         7.37963986995742    1.25534415916064   15.18979916214744
C         7.24845683613789    0.94817704374897   13.84695343541044
C         7.67922135626557    1.84264837860455   12.88124407358402
C         7.90965063536748    6.43930902259398    9.77253446912373
C         7.26946138972485    6.00176349411892    8.61731394852763
C         6.56111030007111    6.91227713869422    7.84581069335196
C         6.50618331742674    8.24471056408010    8.21531338073775
C         7.17878842838858    8.67900587751096    9.34582860800606
C         7.87461295467861    7.77867041983581   10.13289159576925
H         6.13915070124802    6.06526787050136   11.74471493389908
H         4.72182052355266    6.28603692128343   10.66970568669013
H         2.59045789419849    5.14149918916037   11.21762975981059
H         1.19991034827713    4.19721169414127   13.00292715078392
H         2.22752658132135    3.42685727846227   15.11318590839882
H         4.68194020657337    3.55787934057587   15.39879674655537
H         6.07510298704280    4.53386544564652   13.63516099052451
H         5.27316825107222    3.75405829039465    5.87249709086946
H         6.58848035915253    5.37506400470982    4.53221341978233
H         9.05409178534858    5.34260055607735    4.63374758960743
H        10.20526411403667    3.67071241601221    6.03956706805352
H         8.88764802439258    2.04970448352978    7.36148576938818
H         5.94300591590797   -0.75950489613447    7.83024958348946
H         7.03453446425776   -2.56793669674991    6.55133562248633
H         9.46108121370440   -2.95642694946375    6.77962688277766
H        10.79445191142544   -1.52636632652504    8.28962221643740
H         9.69819632868841    0.29133102631533    9.55272667787182
H         5.29951820988717    1.54048699364691   11.53812469109757
H         3.63863249671930    1.50708800787574   13.34607749324180
H         1.25305067315261    1.11214129174698   12.84913484279574
H         0.52650509926024    0.77565666923637   10.51114158360728
H         2.20181762815620    0.78358231096232    8.68621654965328
H        10.35229603824677    1.72814699135472   11.56286395452345
H        12.82236629646792    1.73304147741140   11.56599487557355
H        14.05623106485042    3.20370111682115   10.01489258163029
H        12.81723170842733    4.67347824719122    8.46734332940883
H        10.34152048470539    4.65932499218152    8.46474113286738
H         8.81473534530837    4.30951608952401   14.89110729843660
H         8.06513799438828    2.69877811611438   16.61611882079483
H         7.03767299047137    0.55820663104522   15.93930615524514
H         6.80900565673656    0.00980659462712   13.54317014209442
H         7.60801536821542    1.60051899368163   11.82862135710910
H         7.38332972392466    4.96982756388537    8.28146324986520
H         6.04296129738497    6.56499249111911    6.96572093301631
H         5.94101724522756    8.94479555651895    7.62006731913522
H         7.14829709488158    9.71976954105181    9.63038320049722
H         8.38191423412032    8.09296897175365   11.03191306908159

