66
CSD_code = VAFQIC | q = 0 | S = 0 | Stoichiometry = C31H29N5Zn | MND = 5
Zn       -1.09667692207321    4.82565546628085  -13.25383208964944
N        -2.75613441408161    5.42976929712359  -12.25228055007302
N        -0.09066471805824    5.11540495264383  -11.51905385004070
N         0.49428966682920    3.91718486154952  -14.12058211861020
N        -2.16569953730066    4.23189080888889  -14.87395848243628
N        -0.64007678038271    6.80722584209189  -14.05985397231064
C        -3.93001417856749    5.66670678539851  -12.88527707698062
C        -4.86078637391609    6.27200905585187  -11.97696100369257
C        -4.23340784846872    6.35818792081061  -10.78216539505670
C        -2.90255325592068    5.82909063669077  -10.95968447991669
C        -1.89191897243449    5.79077062174901   -9.98993069656151
C        -2.21276365494224    6.04229083605396   -8.52680672661084
C        -3.34260336452054    5.14439105593371   -8.01141618595499
C        -2.45510744241038    7.52498689299944   -8.22477854000551
C        -0.54963506838662    5.54646737491113  -10.31488050414292
C         0.57512504043324    5.78839681008165   -9.44204399287860
C         1.69381093450361    5.50474307678865  -10.14755844182050
C         1.26083405430338    5.05928141511931  -11.44074692560157
C         2.11741935545089    4.59060349778030  -12.42343975553006
C         1.75597805647656    4.03963926677731  -13.64195731261055
C         2.68686460421273    3.45567968646424  -14.56436068096273
C         1.95522830344744    2.94739710882299  -15.58208105954576
C         0.57093019831724    3.24813472728300  -15.30080898852495
C        -0.50666915710478    2.96341269399280  -16.15198858917914
C        -0.24186341141294    2.01271910204309  -17.30652552223285
C        -1.25790954370813    0.86725693439807  -17.36987608428710
C        -0.09441548863255    2.74328559363256  -18.64548764172897
C        -1.77213892773727    3.53890146875907  -15.97683343077174
C        -2.84101430099199    3.55690331217556  -16.94609868261028
C        -3.85849165932787    4.26545242085906  -16.40626498209967
C        -3.43037880702182    4.66335333168137  -15.09632841519946
C        -4.23582453570213    5.34167068776121  -14.19652105382105
C        -0.73785220240013    7.88799853360085  -13.29906006340535
C        -0.46637352508790    9.16406573102010  -13.76481969533714
C        -0.07439752741334    9.31955840721720  -15.08491391942390
C         0.02883539309398    8.18955749353419  -15.88021087493942
C        -0.26450065649781    6.95606623607773  -15.32195578313888
H        -5.85901758192875    6.57881940223588  -12.22635701382215
H        -4.64373513710591    6.78282028939915   -9.88885075281122
H        -1.33427828601024    5.74459778773473   -7.95054912631624
H        -3.12555917685275    4.10705837440285   -8.25716360494237
H        -4.30942154549028    5.39413963477151   -8.43234667515633
H        -3.40921691069306    5.23376081580273   -6.92819657287073
H        -3.30708860610524    7.91946270570841   -8.76887838606664
H        -1.57883170202375    8.10677337102004   -8.50488516382327
H        -2.63344940505522    7.66171150730793   -7.15975361237168
H         0.54152074687947    6.16723373798414   -8.43903552089578
H         2.71621098185493    5.57825617290899   -9.82836110623151
H         3.17460850465825    4.60716259911690  -12.19325787934099
H         3.75269065631226    3.43386599410985  -14.43733325993493
H         2.34204128912970    2.45693070107670  -16.45410564397897
H         0.71515959808459    1.52600948071878  -17.10746908938327
H        -2.24997063243154    1.19472540456708  -17.65756233595601
H        -1.32984911093032    0.38891783463778  -16.39554121162919
H        -0.92116150335009    0.12570292836741  -18.09257385502603
H         0.71697947732283    3.46628442890487  -18.58397085739790
H        -0.99820726166135    3.27657281622170  -18.92170210232609
H         0.13885423724782    2.02959257519917  -19.43341279707214
H        -2.82645355394442    3.13191941735870  -17.92891514089340
H        -4.81242299535668    4.49541358374497  -16.84205930934212
H        -5.22925474170969    5.60110320709019  -14.53862472644439
H        -1.04671156783318    7.71877043414908  -12.27772231621392
H        -0.56071900631794   10.01496817855241  -13.10842080354770
H         0.14542179387883   10.29866561547872  -15.48473918674959
H         0.33129194254851    8.26199088717486  -16.91315216438795
H        -0.19727383568619    6.04816016941025  -15.90361621736537

