100
CSD_code = VAFRAW | q = 0 | S = 0 | Stoichiometry = C43H45B8P3Pt | MND = 6
Pt        5.90153834422700   11.67698778398407    5.51731503038530
P         6.43286934237223   13.57711352878046    3.82252854725753
C         5.58587878678504   13.17387667323180    2.21762941637220
B         3.23119217602176   13.24569178697050    3.74610926392243
B         4.62569617313108   13.49225294697398    4.85680649327842
B         4.56711462834966   14.19780863517957    3.16655074924739
B         3.87153828982105   12.98943459391700    2.10737270722677
B         3.39977787475564   11.61040635306629    3.03406194163347
B         3.75799291663754   11.90693028545360    4.75305197298290
B         5.04619294108349   11.63221719120738    2.12853234554286
B         4.73256720920717   10.75230731583305    3.89153858500813
C         7.16582575311033   15.24410131083550    3.51408195688174
C         8.18855147979968   15.35420213629740    2.57619194036440
H         8.46606738968980   14.48809176442497    1.98834674183158
C         8.84288139599757   16.55673576417305    2.38273069557629
H         9.62339440095576   16.63316137872137    1.63887240450267
C         8.50362772686353   17.66032651635520    3.14812045206983
H         9.01740653045862   18.59936072721804    3.00224921861992
C         7.50521295884991   17.55445482136467    4.10404293539254
H         7.23976125398185   18.41277995630279    4.70512634527250
C         6.84276363722657   16.35554365531144    4.28865660158727
H         6.05594741771369   16.27972161146867    5.02685321562691
P         7.51487968140805    9.99168883169824    5.57623270617547
C         7.60223329085245    8.83440778841307    4.16655139792668
C         8.09334910526654    9.34506572521384    2.96618957945789
H         8.45406619209253   10.36581019428902    2.93704065562095
C         8.12278245354348    8.56154584294334    1.83050156299592
H         8.50770912846754    8.96428875122489    0.90510778635148
C         7.65090635644443    7.25851246688330    1.87767601051577
H         7.66865498001532    6.64451627914060    0.98956850372234
C         7.15282301047977    6.74823429249868    3.06401808532953
H         6.78173541756287    5.73429680421010    3.10158400296799
C         7.12430248763794    7.53098939835144    4.20548503793489
H         6.73062635322356    7.12785170199035    5.12757354714905
C         7.28003981504698    8.84975271438462    6.97904021264466
C         5.95296744371959    8.53894135415293    7.27006807642393
H         5.17061256827086    8.98537895110723    6.66736139923870
C         5.64512034511298    7.67827651175412    8.30527358657710
H         4.61440921793705    7.43831534488686    8.52209546241260
C         6.66234863670802    7.12592744485558    9.06736903667159
H         6.42706925813597    6.45261527934429    9.87844906187338
C         7.98096714368569    7.44573072696204    8.79420357775841
H         8.77391313507597    7.02332375824773    9.39415371759100
C         8.29349937969008    8.30657051632115    7.75636592475102
H         9.32526981045960    8.55924369919822    7.56156396362922
C         9.28201052648318   10.45505161105745    5.65792930710017
C         9.60066044835843   11.78695969902333    5.88764864233673
H         8.79558385354911   12.50178613163798    6.00838828315619
C        10.92031210410688   12.19638566146054    5.94941115065126
H        11.15564743043469   13.23528436930736    6.13097324695080
C        11.93502238126361   11.27043117473317    5.77406004765757
H        12.96775015014441   11.58302851063322    5.82283051570883
C        11.62561746687024    9.94262315267788    5.52222647170635
H        12.41838484425843    9.22403541931454    5.37173244043136
C        10.30596181353103    9.53392926002460    5.45763730311336
H        10.06616504857653    8.50215268885957    5.23887722010151
P         6.32221114403571   12.56327192073470    7.78644651416768
C         4.69102575455670   12.93130386202808    8.51315547600005
C         4.32745646637693   14.15834552700154    9.05158154378280
H         5.04198096166871   14.96749121905691    9.09825986542800
C         3.04025482869095   14.35401375753438    9.52268961914556
H         2.76432784245804   15.31226246978142    9.93883858272645
C         2.10771827367756   13.33347968612751    9.45876718171234
H         1.10535086121080   13.49280302257108    9.82789145907614
C         2.45883188941162   12.11264990617549    8.90442677088425
H         1.72885552494015   11.31958377634871    8.83521652360114
C         3.73860096382433   11.91755774317667    8.42466926463804
H         4.01133583140911   10.98129615169818    7.95589758506777
C         7.27264134212413   14.07949036859598    8.18551869677430
C         7.52615862163414   14.45909413498779    9.50179565713144
H         7.15269420412257   13.85296059987680   10.31562457119542
C         8.25160065485891   15.60534051126576    9.76482121641108
H         8.44161044162851   15.89726625111298   10.78765222808475
C         8.73552904009966   16.38244416817589    8.72254991930736
H         9.30270179424552   17.27678147240911    8.93515256681635
C         8.49177673306835   16.00894879051566    7.41264494999913
H         8.86468333787838   16.60671106996581    6.59346579606919
C         7.76410657101246   14.86135583563554    7.15069103095316
H         7.57121339876448   14.56607089475884    6.12759444241009
C         7.06207857529543   11.48645863133904    9.07531659632608
C         6.31982722695820   10.74321187161426    9.98461656361688
H         5.24156167367166   10.79778413964444    9.97772854187166
C         6.95533308831402    9.94393138131232   10.91812827145210
H         6.36571667842553    9.37833027284100   11.62498608678276
C         8.33654735289985    9.87106900610297   10.95484021998655
H         8.82833202815001    9.25114480979006   11.68979231032610
C         9.08435085046331   10.59898123707555   10.04384946870898
H        10.16354987684839   10.54713464087865   10.06218300752747
C         8.45249478389113   11.39561022627196    9.11013765988230
H         9.04244915619163   11.96499243231573    8.40543832946489
H         2.20056610076379   13.77911630280076    3.94947233513602
H         3.00911531268037   11.53843671957241    5.59460855634522
H         4.55017858698666   14.24501679744308    5.77117347481191
H         4.56582756935097   15.35158845879123    2.93214754537038
H         3.39996810840610   13.31876256019296    1.08131228004966
H         2.48555919744596   10.95330944896394    2.68445811129523
H         6.07653386820019   13.61421665267035    1.35231954471030
H         4.67292200889382    9.56860161513127    3.94741617449975
H         5.22789681429395   11.03184328241847    1.12653194828748
H         5.70572475468240   10.99537757930335    3.04073442692571

