57
CSD_code = VAFSIE | q = 0 | S = 0 | Stoichiometry = C21H22CoF6N3O4 | MND = 6
Co        5.58368278851781    1.35924787015316    3.84375873454258
F         6.72244280032603   -1.87561624482340    6.65159889399196
F         8.65675811152066   -2.07447190483720    5.73068400417729
F         7.01718490705160   -3.27471384447334    5.04396394449754
F         7.06081729193993    4.03792700945336    7.27449496759434
F         8.81968145086238    3.14061198703076    6.41100246960580
F         8.32453281077641    5.18551227733342    5.96762798364488
O         6.06585166318001   -0.15750618644471    4.84457787706766
O         7.01903142624154    2.26206643801148    4.69726684757936
O         4.10022018480333    0.44042306971965    3.18288671893619
O         1.96970757133040   -0.06934801829725    3.47849758968921
N         6.53237810756438    0.87503487518628    2.29849655666390
N         5.18844100127303    2.92040141165374    2.85654812033115
N         4.38580546617059    1.75591890396239    5.40433359466454
C         6.96679021290155   -0.95841866421627    4.46140476854385
C         7.63582636242322   -1.00135212809793    3.26422886516970
C         7.36370627659707   -0.12152240741783    2.19201279736933
C         6.19654466485366    1.67564090453023    1.13522710781729
C         4.96027879284737    2.51991432385630    1.48730478911350
C         5.45308070045401    4.15247661102622    3.17597435877309
C         6.16853233662932    4.45772876839574    4.36346007049782
C         6.93989508348411    3.49690711288498    4.97369151136110
C         7.33724365230051   -2.04485717466958    5.48098266313786
C         8.06582237917816   -0.39414532321534    0.89300859114804
C         5.06783166246100    5.31168715858497    2.29853500181031
C         7.80682221866580    3.95965340653567    6.15204111024471
C         2.98933789530718    0.49053313025226    3.81431232631189
C         2.99200919439951    1.41851788354619    5.06557061316034
C         2.19403337397119    2.68691950044856    4.72760713422235
C         2.09953482059253    3.57992975320965    5.93147457099609
C         3.01079284357130    4.61242661226041    6.12181818761093
C         2.96952603240015    5.38846862290444    7.26831382794207
C         2.01272387063883    5.14213742021240    8.23670200988939
C         1.09533497559257    4.12024459892752    8.05243753988169
C         1.14175390329539    3.34194096878819    6.91038057512681
H         4.40559491423879    2.68031411112361    5.84274081254026
H         4.72590025883069    1.09395181677307    6.10419518461803
H         8.37360863707072   -1.77261065212299    3.11990185034467
H         5.98172856553662    1.04180499560894    0.26987529342113
H         7.03686909471258    2.34074377471152    0.89368351134232
H         4.85759375199665    3.36046960929602    0.79876168267610
H         4.07223829082070    1.88742415277366    1.44004799683151
H         6.23870802505520    5.48015546713384    4.69320695365183
H         8.54071451492268    0.50925191453870    0.51423882455777
H         7.34853569453142   -0.73809089249254    0.14806352974019
H         8.82093780708114   -1.16253011765022    1.02207403779183
H         4.08471162404416    5.16117582063050    1.85738012655026
H         5.79444063593160    5.43847476164104    1.49669073626689
H         5.05540231836306    6.22713398896807    2.88307518692031
H         2.49852481862017    0.89520097818285    5.89255620043567
H         1.20245178344508    2.37456878270824    4.39709797558286
H         2.68942711947226    3.20470218661222    3.90321807136221
H         3.74752610799296    4.82469126930776    5.35866137110256
H         3.68648298441415    6.18430252422525    7.40385126253526
H         1.97899413222722    5.74628937483348    9.13057422539350
H         0.34312294514012    3.92865719181067    8.80280895869761
H         0.42822914143015    2.54330021901098    6.76936948452036

