44
CSD_code = VAFXUV | q = 0 | S = 0 | Stoichiometry = C11H23ClO6P2Ru | MND = 8
Ru        1.91186611254001    0.81713952490596   -0.10856397065595
P         1.65961186654337   -1.41690841981735   -0.08749379885034
P         3.64851354981263    0.62761160276111    1.30803552391214
Cl        0.49081274419712    0.85150964641995    1.81168576690518
O         0.45289437728102   -1.98648596035489   -1.02468738096116
C        -0.84405931267762   -1.42307107248077   -0.88803261231300
O         2.81477709738556   -2.37660048379922   -0.65037038040346
C         3.61722723451286   -1.98844229142516   -1.74894048781379
O         1.41057909131543   -2.12293377634935    1.32655218675443
C         1.30293097466960   -3.54167558274921    1.42575049397540
O         3.89901950759378   -0.57391016882631    2.34198159480320
C         3.07679471965471   -0.71700759551021    3.49730399172552
O         4.98629911581964    0.47478007443538    0.43928547650883
C         6.26734549699168    0.39175914849225    1.06217700326650
O         3.99603620768253    1.87920024567996    2.28584851245556
C         3.17991778274614    3.03183605164591    2.40784989690257
C         1.25033139123813    2.82546769771841   -0.85836600177629
C         0.56995564851381    1.80939724677948   -1.59157469324828
C         1.54706645776964    1.06766678643005   -2.30209176405890
C         2.82670699250626    1.59638546442646   -1.99390469092339
C         2.63230197031213    2.69385742196739   -1.10434382375527
H        -1.18689601728045   -1.10353787231756   -1.87365801498143
H        -0.83325331248272   -0.57014677042136   -0.20315048816173
H        -1.52217239248317   -2.18214566876004   -0.49541674514264
H         4.43483585923204   -2.70658435793304   -1.80518898881567
H         4.01810072879424   -0.98384164441842   -1.58687773348893
H         3.04223663014547   -2.01398332393001   -2.67645815892918
H         0.70722398773618   -3.74738771727138    2.31471622390142
H         2.29493269615484   -3.98186910919357    1.52852993695616
H         0.81541918641404   -3.95745775049599    0.54248030282516
H         3.36719314571495   -1.65760454078885    3.96293087963928
H         2.02209010882558   -0.74399842123028    3.22140731652878
H         3.25123072019285    0.11146321180414    4.18597438906298
H         7.00344747331243    0.55518127208470    0.27569092251608
H         6.40687530941385   -0.59307163698482    1.50665610126953
H         6.36844979606922    1.15527577164980    1.83351125364548
H         3.13428859197816    3.29110188364266    3.46607574536294
H         2.16679761214554    2.83623453699711    2.04537623695570
H         3.62242254771197    3.85975362444684    1.84937572387843
H         0.77336297498653    3.62407214079878   -0.30481954724799
H        -0.50147649213624    1.74620160312813   -1.72615654921456
H         1.34364449532749    0.29816266219593   -3.03647004928764
H         3.75523573338140    1.34939231397432   -2.48853879440397
H         3.40568159045034    3.37991423269980   -0.78519080530877

