35
CSD_code = VAFXOP | q = 0 | S = 0 | Stoichiometry = C16H12ClF5Pt | MND = 6
Pt       -0.75744531431897    2.53311349620452    0.54428947302895
Cl        0.06192098960150    1.46627910465820    2.36839031228646
F         1.97445471556808    2.20919643560273   -0.80099879431000
F         4.39328632785687    3.45032404042066   -0.40200390598804
F         4.56709674830594    5.51962944848810    1.37012210827049
F         2.34368594641317    6.35733126120595    2.71039259570625
F        -0.05538563261891    5.10333793612172    2.27663148604674
C         0.92912707039027    3.62175662738661    0.74787219016497
C         2.07900216438397    3.22808272232282    0.07918506701758
C         3.30685552833744    3.84940164665541    0.26941979020378
C         3.39562395736816    4.90607413417343    1.17084179182427
C         2.26103488298518    5.33117507712900    1.85567582942493
C         1.05205565964850    4.68273777030356    1.63324463096368
C        -1.35243411760533    3.06624323401850   -1.46644647770189
C        -1.55181673818656    4.15716728350259   -0.63353638091991
C        -2.99580748759020    4.30004004097754   -0.23558310040924
C        -3.67774954664714    3.05509206336520   -0.81722610259734
C        -2.65374390369861    2.36057339521053   -1.75327857036919
C        -2.75580354017295    1.48704964486288    0.91649826736537
C        -1.98424393325435    0.78803549983201    0.02413153647841
C        -2.70562773322587    0.87306446882470   -1.30787173651282
C        -4.15508523267606    0.75571503371036   -0.81273320914347
C        -4.00834199097677    1.92518420084334    0.17822497636150
H        -0.50958669135218    2.96055735293160   -2.14216624257479
H        -0.90162749711017    5.02556097313048   -0.60148849823577
H        -2.72106082203647    1.41848540490561    1.99811524559354
H        -3.40591174490724    5.21579991449287   -0.66740040932605
H        -3.11323853280878    4.37252599492716    0.85019278079334
H        -4.59160479283620    3.32875655204083   -1.34675110389308
H        -2.90867963912756    2.45278201519856   -2.81164108143243
H        -1.24145250937857    0.02511326018527    0.24076849886506
H        -2.37697072885571    0.16572330116071   -2.06468268403441
H        -4.90164114546048    0.92838301303533   -1.58647538794196
H        -4.35183993096763   -0.19631239537103   -0.32264129770721
H        -4.85924478504826    2.14012004754104    0.82072840269817

