66
CSD_code = VAFYEG | q = 0 | S = 0 | Stoichiometry = C25H28N4O6P2Ru | MND = 8
Ru        1.44433242947155    1.97144676287643    2.95579866287427
P         0.88862648894852    1.59023977580243    5.11971896092968
P         3.62185709051825    1.30053468599400    3.10894745918331
O         0.72994027411658    0.04813388917375    5.67215608382722
O         1.66785620555598    2.11731894580250    6.41459717448158
O        -0.55414908874967    2.22818718317750    5.39246005117396
O         4.11610727090016    0.07632972569421    4.09928073905000
O         4.90973255151270    2.21058830034007    3.33948096163302
O         3.92790280682980    0.72565462608618    1.65372839118441
N        -0.36272269885896    6.03808994288135    7.07826310515228
N         3.59431586539919    4.52613678001854    6.45457345349025
N         3.34913885933032    7.06648210344186    2.92321949584583
N         4.31751316893636    3.53598645133355    0.71387981197709
C        -0.00567281269341   -0.94737166917418    4.99404443357828
C         2.88279295389134    1.54412804812902    6.88527256556983
C        -1.17300368600061    2.17228562234891    6.68091103278176
C         3.43856525369678   -1.16332475625150    4.12946738041291
C         5.42264662508731    2.69961669268890    4.57285735639515
C         5.25658551948703    0.46550576393159    1.19877556545458
C        -0.33328525686968    0.83216956175287    2.10270228816781
C        -0.54003760721369    2.23679343920598    1.95744646482753
C         0.44998325397447    2.72104020107844    1.06316582141028
C         1.30546548851167    1.65343130715935    0.72850511773316
C         0.80858387973392    0.47272008622803    1.36421283110163
C         1.96694790312818    3.91683721597181    3.31600607013446
C         1.03029497233319    4.64874955844291    4.14202179377834
C         1.28428001654661    4.95481422728608    5.45314467804767
C         0.36181374110959    5.56643156690337    6.32258063135205
C         2.54645891292496    4.69814295341673    6.01534237828315
C         2.93722309040839    4.55725268243759    2.60826981186376
C         3.17656612216473    5.94251473068855    2.76873694171847
C         3.71425611977056    3.93543313864034    1.60688168847149
C        -0.21394824652762    5.11644914358648    3.49693915010001
C        -1.45844324676066    4.94733195407656    4.09930087064981
C        -2.60136950320720    5.42616235494749    3.48604622727669
C        -2.52019667552932    6.09205747300615    2.27452077665205
C        -1.28490243719959    6.27937653466750    1.67766286505528
C        -0.13970004940615    5.79177254535981    2.27871183626953
H         0.08228093684873   -1.85805855732867    5.58799587328361
H         0.40218028109855   -1.12432980818482    3.99578380243135
H        -1.05926130993275   -0.66891288962821    4.91499562205096
H         3.40478097366683    2.33080564728456    7.43045605392358
H         3.49983768529686    1.20127100559347    6.05551065735789
H         2.65878056898759    0.70762257761978    7.54843773013193
H        -2.24949629583414    2.13307134660445    6.51396456405801
H        -0.91889764808609    3.06523868319743    7.25303700792403
H        -0.84870531092071    1.28918259225504    7.23204367262712
H         2.80819904377927   -1.21806063311412    5.01841355061190
H         4.19392526648271   -1.94935438999296    4.17055518192631
H         2.82996643327080   -1.29894610832259    3.23199446578185
H         4.70087444174493    3.33049497501776    5.09488067435358
H         6.29754932643107    3.29328128757178    4.30793042059998
H         5.72241028956673    1.87258049640147    5.21733828384277
H         5.16935489943379   -0.25903710886393    0.38983261270004
H         5.87558535336082    0.06191201441408    2.00071344741406
H         5.69121543394992    1.39347885592046    0.82778414276068
H        -1.03262823159434    0.15555432599584    2.57470406844751
H        -1.42705291768764    2.77092311889465    2.26926316185477
H         0.48213440826189    3.71324694255023    0.63367823862303
H         2.09171237129013    1.68311411541430   -0.01148939005679
H         1.15253734228602   -0.53319218298192    1.16252992584360
H        -1.53311989329028    4.41722914542258    5.03377253987326
H        -3.56042647303925    5.28139473741292    3.96105952836023
H        -3.41416811652670    6.46816662760714    1.79991596294218
H        -1.20962916685187    6.80995824163662    0.74005164995050
H         0.81990475272923    5.97151539245531    1.81661562249587

