58
CSD_code = VAGBUA | q = 0 | S = 0 | Stoichiometry = C26H25ClFeN2O2S | MND = 5
Fe        1.58690980302990    0.99256682536778    0.89930200396181
Cl        3.05228415250843    2.46215614384005    0.73935734461051
S         7.50181516334895   -0.12196205170182   -0.00469784513612
O         0.76766067300539    1.64769151882426    2.45812629705456
O         0.33276345142358    2.04133500316526   -0.11369860375505
N         2.69953100469544   -0.20681660195545    1.87775439708731
N         2.07446382994428    0.02175949794825   -0.59551402148003
C         1.08132883091923    1.44785897390935    3.68920768308522
C         0.35547391520304    2.11921755179524    4.70539836456791
C         0.66040319912622    1.95320699779280    6.02883156895252
C         1.69890778653759    1.10017410474217    6.42030163660779
C         2.41025825750121    0.41878086554630    5.46835026347753
C         2.12716256531299    0.55963642821723    4.09680524639974
C         2.86285223237051   -0.21692454424192    3.16263663409418
C         3.55247110652656   -1.05753159362191    1.04207931423048
C         2.80315409881740   -1.19368845745189   -0.29468269571683
C         1.75557996002794    0.23481192739480   -1.83896250501464
C         0.94093545998702    1.29722769512919   -2.29151321018666
C         0.79715458247616    1.51007653809181   -3.69111880916609
C         0.05284863011726    2.55086810969590   -4.09974677075951
C        -0.70170761712825    3.37005895554778   -3.28769349754896
C        -0.54689942531078    3.21389964981962   -1.93089987896273
C         0.26821141401378    2.18452687793068   -1.38466754827147
C         3.75891063943912   -2.46059363626920    1.62984244288791
C         4.89480413816768   -0.31620438458432    0.87315838076292
C         5.89740843584476   -0.98393370801928   -0.05197441082767
C         7.04146527792058    1.50133762019556   -0.72002185210016
C         6.31504468295294    1.36544515266726   -2.01834320544101
C         6.89258483795881    0.67674344361362   -3.08016005323382
C         6.22030054491999    0.55132186060826   -4.28169569549141
C         4.96785802195173    1.12352590536858   -4.43800816449222
C         4.38956649502718    1.81158667268161   -3.38483081186762
C         5.05159470706217    1.92348216689292   -2.17375506336655
H        -0.43671502992581    2.77938512438631    4.38778312216891
H         0.09894310075872    2.48787380092503    6.78096055780202
H         1.93234724259411    0.98115540921234    7.46707962715131
H         3.20950441498498   -0.24721647498911    5.76334601327078
H         3.59854018537509   -0.88824104260787    3.60166231969532
H         3.49274399560515   -1.44769352611031   -1.10496335005610
H         2.07443473827005   -2.00902559809969   -0.20121454063764
H         2.11181111527286   -0.46413036152385   -2.59718587115661
H         1.34127061488363    0.87391597911590   -4.37315356094067
H        -1.34507285305073    4.13671093499066   -3.69087589038209
H        -1.04252890520711    3.87395426039611   -1.23572588135349
H         2.82682731670038   -2.83574094590029    2.04874251538932
H         4.08119479529303   -3.13904795245652    0.84420241299063
H         4.52004682059875   -2.46250234455910    2.40526311189568
H         5.34747717908597   -0.21092198616812    1.86220154119739
H         4.66722254765693    0.68650744170040    0.50745854792064
H         5.57125764728663   -0.98221635804429   -1.09203931373702
H         6.12756471883759   -2.00320914809658    0.25614091766349
H         6.44864169294311    2.04724622569989    0.01306343811534
H         8.00168721666286    2.00122717746424   -0.85443888178328
H         7.87043314994340    0.23356946087024   -2.95353745894931
H         6.67631079472969    0.01239850241087   -5.09970499785522
H         4.44800680399347    1.03602603780039   -5.38145664200499
H         3.41885230076578    2.27002773159185   -3.50127509280803
H         4.58489754022545    2.44610614305801   -1.35079957858513

