109
CSD_code = VAGCAJ | q = 0 | S = 0 | Stoichiometry = C36H64FeN6Si2 | MND = 3
Fe       -1.28529562193490    1.88771731039900    4.35652033704904
N        -2.66609309160529    3.20002123597640    5.17333526523029
N        -4.58238920353983    4.58346470893505    5.18495059300444
N        -4.10838927193414    3.34493716674146    3.33967552024345
N        -3.82150684354877    2.33928855068027    1.32287346423825
N        -1.94306170087430    2.76831798462170    2.64145723720192
N        -0.18832620557232    0.47611890088776    4.68691584772269
Si       -0.99178849357346    4.09676948878076    2.11534259236262
Si        1.27737548410803    0.10551694601760    3.83653518654946
C        -2.53941669171124    3.22637912021667    6.56728799983347
C        -3.48789522791298    2.57948959832247    7.38351394270121
C        -3.35321872006638    2.65544962668762    8.76152275357600
H        -4.07901168716597    2.16446913244596    9.39220112101354
C        -2.30822262844504    3.34318466925726    9.34800778068482
H        -2.23147038254825    3.40403960118951   10.42332935405429
C        -1.34658773899309    3.92799634346408    8.54545675459115
H        -0.51169848258106    4.43571364830849    9.00423819875661
C        -1.44184938731607    3.87496849629969    7.16473627670443
C        -4.59678396365651    1.74062659501397    6.79373869726516
H        -4.59400297471654    1.86419181620953    5.70854094182809
C        -5.97634824663632    2.15654629167986    7.30584778582809
H        -6.06837162162593    1.98555302723802    8.37563414918553
H        -6.74834900891188    1.57818834666880    6.80259051959117
H        -6.15205297327545    3.21068473882336    7.10756916186712
C        -4.31824675918522    0.26563338503646    7.09639652051719
H        -3.34372659304301   -0.01826285939100    6.70578729747648
H        -5.07371475570856   -0.36524374025809    6.63332093498882
H        -4.32569819614105    0.08146327466253    8.16819072699381
C        -0.35825177322188    4.47758243273396    6.30346406239909
H        -0.70071739788288    4.44825945925297    5.26298430273932
C        -0.04221036207238    5.92813155728797    6.67349275638867
H        -0.94261473156091    6.53984052720638    6.66773295882227
H         0.66000947401403    6.34792037715008    5.95612119322280
H         0.40583046025842    5.99418045329505    7.66187592186418
C         0.89340759011194    3.60447508507156    6.41241030132260
H         1.22116151802960    3.53170214248159    7.44694448866437
H         1.70458945673830    4.02215197036342    5.82181227869173
H         0.66537613323109    2.60329782857720    6.04492977547145
C        -3.71942866712946    3.70884498681796    4.56641283385722
C        -4.13882996060773    5.56826381971596    6.14233966179542
H        -4.57450295022917    5.38317488763357    7.12977061142239
H        -4.44165572531465    6.56458981140826    5.80661211176709
H        -3.05816601943472    5.55412314138680    6.23649927820677
C        -5.82537616656808    4.90994862892957    4.52946849643318
H        -5.70044322467179    5.68836968018196    3.76796461781033
H        -6.53230603963825    5.26091810883509    5.28232612809646
H        -6.21855069489334    4.01682486835480    4.05218274223940
C        -3.27473041053398    2.80684575093130    2.47109636943543
C        -5.23167354529684    2.43865645815763    1.05839038949827
H        -5.69798952317495    1.44855274116863    1.03159997115481
H        -5.39617147085722    2.92572534573866    0.09324329616699
H        -5.68438787814401    3.02855256073483    1.84921101319926
C        -3.03641244454496    1.66729319767265    0.32433980391270
H        -2.03766361404655    1.50107464103644    0.71864797815092
H        -2.96922573166295    2.26202647006019   -0.59095037852089
H        -3.49756854486633    0.70668725802648    0.07576933581366
C        -1.73713182326135    5.79461489349842    2.61511242688270
H        -2.75924749253130    5.87302502185955    2.25535609696384
H        -1.17632426399697    6.62651971567527    2.19992892649949
H        -1.76564605524917    5.92005613788752    3.69314474815116
C        -0.77147205095137    4.18578478617494    0.21343015901610
H        -0.37513733082355    3.26292988733607   -0.19701653508754
H        -0.07370529291221    4.97824613954094   -0.03792864776673
H        -1.70572840153278    4.40374849620391   -0.29365212771549
C         0.71461429621696    3.85587987615069    2.92467155080699
H         0.66138357656480    3.07325604803202    3.67833391150354
H         1.06037683917944    4.76850141711273    3.39550284541883
H         1.46080527947718    3.56604139442378    2.19534205322004
C        -0.86954608983454   -0.58574900774492    5.29039252780948
C        -0.51752931656342   -1.00031411803298    6.59149970273431
C        -1.16064491920382   -2.08501364717151    7.16388972968745
H        -0.89223546039989   -2.39645183804511    8.16221761257953
C        -2.13745378830961   -2.78269273398414    6.47937712013803
H        -2.61720717495840   -3.63773259052979    6.93234213043287
C        -2.50300681038797   -2.36477812836470    5.21489353963967
H        -3.27814414001335   -2.90071857236325    4.68686405181916
C        -1.89382457554526   -1.27442530923888    4.61299393015417
C         0.51190750031343   -0.23796876333196    7.38943339659140
H         0.99383265691453    0.47406923916240    6.71647922778233
C        -0.19697925746788    0.55122492220448    8.49244562638037
H        -0.69119919400891   -0.12188721683719    9.18956397436849
H        -0.94725225546994    1.20601254058190    8.05758359133653
H         0.51576209897472    1.15804989319497    9.04678800583439
C         1.59459236689887   -1.14054298765313    7.98141148844304
H         1.18414985152247   -1.81218799852580    8.73127709246272
H         2.36305351876157   -0.53405430323893    8.45701864012918
H         2.06219833203596   -1.74014188818658    7.20407045622512
C        -2.36605456417610   -0.81940950945765    3.25389393161152
H        -1.73662743434403    0.02204426163430    2.93334744135978
C        -3.80503471309331   -0.31169209026045    3.36545787609982
H        -4.44988371713291   -1.06261304741441    3.81631744038335
H        -4.19889507248443   -0.06407586121598    2.38483513400272
H        -3.82568894955837    0.58391256540422    3.98358847727765
C        -2.24964573963400   -1.93283055741831    2.21185834080864
H        -1.23164011246718   -2.31427098878636    2.17828701208340
H        -2.50688401063376   -1.55349379663455    1.22499103659804
H        -2.91693340270529   -2.75990855529731    2.44312518865403
C         1.66909199180434   -1.76055984813931    3.96964178229676
H         2.00372641226622   -2.02680758495745    4.96617672502023
H         2.44893037745813   -2.04939829180000    3.27219492701399
H         0.78953397564394   -2.36012635265986    3.75756862016219
C         2.81924187181999    1.05542939877378    4.45622771382880
H         2.72125865137859    2.12539939134288    4.31768480935343
H         3.68999400730168    0.73402122222018    3.89370200082553
H         3.02655851598172    0.87386555736376    5.50578663159801
C         0.98730071982888    0.52069180297304    1.98823660035628
H         0.63705739063945   -0.34599203072312    1.43638904891391
H         1.89993035113154    0.86222744418599    1.51233104217902
H         0.24324605962990    1.30524796995650    1.88868170605463

