116
CSD_code = VAGDEP | q = 1 | S = 0 | Stoichiometry = C45H54CdClN6O6Se3(1+) | MND = 4
C         8.92960252277663    1.51893602642755    2.03440037612209
C        10.94421690998570    1.37441989021209    2.91061196552103
H        11.67789015260378    1.22496894891547    3.67561422073864
C        11.08471100434599    1.64446984918888    1.59225373126930
H        11.96610368449702    1.78144250581223    1.00057899228840
C         9.52580867549944    1.73146835616022   -0.34711253343820
H        10.41049783153552    1.99691808270121   -0.92578277364490
H         8.72542601872423    2.44577769049871   -0.59314768660328
C         9.03818481946572    0.32924837480739   -0.72555552151564
C         8.53099024184655   -1.08098300014684   -2.51957847312210
H         8.39132739888055   -0.95594101865282   -3.58969038828861
H         9.26300799494017   -1.86510558268996   -2.31918362404918
H         7.58982804538718   -1.33930436147308   -2.03190484448427
C         9.03077257350670    0.95791146239879    4.43073754860973
C         8.58897163223034   -0.34760054744425    4.64269734028895
C         8.05529725131028   -0.65690160291752    5.88592398668440
H         7.70501333326082   -1.66192233923785    6.06681071803819
C         7.97173809597521    0.28711686670172    6.89839373043427
C         8.42989737367842    1.57642909627001    6.65206501840230
H         8.37690770991568    2.31664637319443    7.43768852048118
C         8.95901435902863    1.93504846377306    5.42297340256375
C         9.42138626184410    3.33176819337183    5.15280209318636
H        10.48588142100644    3.36444432183850    4.92371301079925
H         8.89332455702104    3.75071483086002    4.29334182474120
H         9.23799523979189    3.97329073440030    6.00887488140363
C         7.40050227562492   -0.06168351278424    8.23674607557756
H         6.53117530246136    0.55837507318167    8.45219125434755
H         7.09946106406222   -1.10457825738744    8.27368351121420
H         8.13615516521475    0.11605138924828    9.01971005819295
C         8.70616070423647   -1.38000220394677    3.56812042836372
H         8.14381395899812   -1.08688990395157    2.68115268165875
H         9.74630862320679   -1.50858793257098    3.26878243930423
H         8.32522224682554   -2.33582518979112    3.91456025819360
Cd        7.30943361966145    4.21961192181936    1.30712549258089
Cl        7.30827689603368    4.21983843427414   -1.11794678599174
N         9.60415534103606    1.29292237013889    3.17113905697841
N         9.82804766922702    1.74521200993963    1.05527384933073
O         8.72393417565390   -0.49305902131223    0.09322640199114
O         9.01028541897881    0.17198980376843   -2.03392052164044
Se        7.08945669679012    1.59066540750753    1.88903704789268
C         8.83740101866938    6.97340000085856    2.03466353975515
C         7.95539205423497    8.79049403626708    2.91079206282517
H         7.71809370019861    9.50064493571598    3.67577991586347
C         7.65130438865054    8.77713718041998    1.59243649594396
H         7.09209884927227    9.47201939054544    1.00071827436429
C         8.35532424882662    7.38356659604636   -0.34691191471648
H         7.68319607203091    8.01718860761227   -0.92552971681720
H         8.13674052723326    6.33332532812256   -0.59303014827935
C         9.81352396955130    7.66209494972748   -0.72541700937434
C        11.28842388299746    7.92866594668657   -2.51934061836191
H        11.24999552418387    7.74527278123327   -3.58947721755914
H        11.60131337305211    8.95472297151398   -2.31880776832062
H        11.98278074682403    7.24279459550271   -2.03166356125609
C         9.27281160557368    7.34167261449081    4.43094082770352
C        10.62436598526563    7.61174386539116    4.64271483129918
C        11.15919133156826    7.30432380489080    5.88590838145755
H        12.20473013309850    7.50346106642396    6.06667435533825
C        10.38350510365208    6.76008485473615    6.89851515700967
C         9.03780363760942    6.51229351020451    6.65237218806994
H         8.42332810804606    6.09638948738726    7.43810621931425
C         8.46253370697503    6.79117513376149    5.42333833356587
C         7.02165055452164    6.49350335882968    5.15346265497643
H         6.46110264429737    7.39929732269570    4.92535920246603
H         6.92245627325523    5.82746207548163    4.29348515710663
H         6.55806432320868    6.01326012724891    6.00932297685765
C        10.97128790327674    6.43997360325181    8.23687203811002
H        10.86763701336151    5.37740229961481    8.45319980499108
H        12.02532500953882    6.69939030220519    8.27322385753858
H        10.45055504227449    6.98951040180166    9.01959562813344
C        11.45972738950450    8.22933721678370    3.56798779750956
H        11.48709691479098    7.59559784929034    2.68114774396171
H        11.05085233314507    9.19430326786959    3.26847316703717
H        12.47795897058046    8.37756116396816    3.91434437309405
N         8.69590759451323    7.67065555098492    3.17136374058386
N         8.19231834841887    7.63840218415029    1.05550070360008
O        10.68270758612129    7.80127342390717    0.09336770685726
O         9.96365988961478    7.71695684005080   -2.03373212286325
Se        9.69518649515362    5.34384117136375    1.88933919886530
C         4.16010056008616    4.16686377403548    2.03463658140906
C         3.02714642106647    2.49465785059292    2.91075119773490
H         2.53061289128175    1.93419918871494    3.67571652998597
C         3.19082179776272    2.23795185865218    1.59241330208245
H         2.86852908960357    1.40628597709444    1.00066610078842
C         4.04593876380581    3.54425705267056   -0.34693762065039
H         3.83299968482199    2.64537145383166   -0.92544425103013
H         5.06485650791265    3.87977303402247   -0.59316414922260
C         3.07557844454403    4.66776287313128   -0.72550062775803
C         2.10766794469230    5.81202203990112   -2.51954688124540
H         2.28584820802934    5.87034395557710   -3.58966883031584
H         1.06251994357546    5.57023934216241   -2.31913954828725
H         2.35462950126327    6.75625608227612   -2.03184055005404
C         3.62344301597551    4.35988654804808    4.43090536168392
C         2.71405402278115    5.39559353363417    4.64262877392870
C         2.71298671429830    6.01247667496054    5.88582035832232
H         2.01798319768212    6.81857284973344    6.06655116478746
C         3.57199898881545    5.61259055094577    6.89846460646407
C         4.45915139975413    4.57081030008499    6.65237550121920
H         5.12639798790368    4.24638863236080    7.43816704147573
C         4.50513988117143    3.93313968086698    5.42335150002562
C         5.48299141817897    2.83376951734177    5.15353163305664
H         4.97846565712469    1.89551879890272    4.92583980079175
H         6.10926650378199    3.08041391120845    4.29332295350760
H         6.13083816337125    2.67245149527691    6.00928248234576
C         3.55547754969303    6.28173523214690    8.23679660757754
H         4.52732910676149    6.72393485691462    8.45261029418181
H         2.80331354905739    7.06437683234362    8.27343114894782
H         3.34079777207345    5.55592714501400    9.01969443166835
C         1.76169972307559    5.81050217650814    3.56784156074750
H         2.29698957647597    6.15095037666986    2.68103455599661
H         1.13025256449318    4.97408697793125    3.26827632956273
H         1.12440966292605    6.61837081379314    3.91415726510373
N         3.62688068654599    3.69578577642236    3.17132668738901
N         3.90669290265889    3.27572778186124    1.05549043215496
O         2.52113784255561    5.35149952092754    0.09323118357100
O         2.95301877934263    4.77032362193845   -2.03380684690944
Se        5.14259705536665    5.72438009164508    1.88913089847336

