61
CSD_code = VAGKEU | q = 0 | S = 0 | Stoichiometry = C18H24F12N2O4Pd | MND = 4
Pd       -0.00008557836649    0.00007354468150    0.00004960674449
O        -0.66149006196654   -2.34742886485340    3.42096682495431
O         0.41544238664749    1.35782549328545    1.48602708100728
N        -1.54424435819428   -0.67181852902016    1.09134152222571
C         0.45628397341908   -2.51262651539581    4.25761082731459
H         0.11071110525271   -2.33257224281681    5.27253558672150
H         1.24088052057061   -1.79029828155857    4.00744672728865
H         0.86146399599160   -3.52868804820286    4.17983874415010
C        -0.37054073377084   -2.55339215833429    2.05890302887403
H        -0.14983063586390   -3.61393020072006    1.87142033581084
H         0.51490401620528   -1.94415224587303    1.74852801247131
C        -1.58932033083257   -2.10859300158050    1.24202791739562
H        -1.53714556176401   -2.53679384459349    0.23651217049729
H        -2.49685442151170   -2.44834423911772    1.74680072058172
C        -2.24552979071512    0.12106561417404    1.79998672962105
C        -2.03488676443235    1.58738936226938    1.55535009473584
H        -2.79408268224889    2.20136299079722    2.04098767007103
H        -2.03801828743622    1.77216176296654    0.46892285552101
C        -0.60990675704943    1.99516039796112    2.06196036555982
C        -3.20749569362545   -0.30759282484216    2.86093919672372
H        -2.70922071627956   -0.99728040989778    3.54185098526461
H        -4.05770589651804   -0.82126101556460    2.41211579809707
H        -3.57465172098162    0.54521296593904    3.42296399962135
C        -0.47929030238440    3.52597115474975    1.80142967480949
C        -0.54343216024209    1.77969074778852    3.60171289804254
F        -0.75599607883020    3.80107369230432    0.51194474786834
F         0.74718872460024    3.99040024934441    2.02351946515370
F        -1.32763651205199    4.26600379064895    2.53001973922277
F        -1.67244416689447    2.13428877528806    4.24575552222394
F         0.44828887475750    2.46031927312861    4.17774190114445
F        -0.34320967757846    0.49042508476485    3.88030891586911
O        -0.41550579522166   -1.35776305946292   -1.48594738711818
C         0.60977416979043   -1.99513880770651   -2.06198281389642
C         2.03478119098996   -1.58752375912974   -1.55535124378918
C         2.24542025127814   -0.12120693306770   -1.80001001611082
N         1.54411706449420    0.67169289713069   -1.09139144584238
C         1.58939887492622    2.10847021892718   -1.24197306411294
C         0.37067791987853    2.55335450174259   -2.05888260999526
O         0.66162110198470    2.34738156495948   -3.42094754365994
C        -0.45608862563430    2.51282558462237   -4.25763368895758
H        -0.11052914908063    2.33264139101939   -5.27253830749966
H        -1.24088116248241    1.79071179082197   -4.00747981752261
H        -0.86101779211318    3.52898967732838   -4.17992942758535
H         0.15005106022068    3.61390266664279   -1.87137969384383
H        -0.51480559833442    1.94416810140249   -1.74851189521283
H         1.53722909872521    2.53665376881192   -0.23644558871792
H         2.49699362014678    2.44812830267467   -1.74670343628178
C         3.20756856451027    0.30743742620211   -2.86079750505802
H         2.70936746615335    0.99704922006459   -3.54173368046919
H         4.05765931647665    0.82122783179120   -2.41191359563181
H         3.57495531047443   -0.54538240800430   -3.42271465820227
H         2.79395785988149   -2.20151932058772   -2.04099219402613
H         2.03786811009099   -1.77230901045668   -0.46892233022948
C         0.47909257703260   -3.52597385487919   -1.80161468800750
F         0.75573558631700   -3.80122447052596   -0.51214689311733
F        -0.74739339781731   -3.99033089167197   -2.02380276114672
F         1.32743899075543   -4.26596364025161   -2.53025143029143
C         0.54331894867827   -1.77953475712225   -3.60172085361962
F         1.67235274574959   -2.13404636516380   -4.24577553356982
F        -0.44837587485115   -2.46012523855303   -4.17783843924120
F         0.34307285906801   -0.49024490527703   -3.88018712282875

