36
CSD_code = VAGNOH | q = 0 | S = 0 | Stoichiometry = C11H16Cl3N5Pd | MND = 4
Pd        1.44931666176767    2.91078001080568    6.19572484888249
Cl        0.04678372429567    1.98135318172285    7.64054168305725
Cl       -0.13006705840870    3.47841284319931    4.75252007086854
Cl        4.34946668478870   -1.42531232774597   12.81386062121769
N         5.18775054909225    1.89463858168914    8.00712046830163
H         6.11475581685746    2.29314590169652    7.95956165115907
N         2.97015790345355    2.41346947933748    7.41939141399829
H         2.67762848938579    2.04620410587214    8.32314621063169
N         4.75757309831056    2.94813407787166    6.00738959795507
H         5.75848545858671    2.85686139794803    5.90764687278980
N         2.82824620317499    3.69858981690815    4.92774221031285
H         2.41442057137706    4.15019496574931    4.11664299363136
N         4.94536766834608    4.01179079116696    3.97444193382927
H         5.89390577639212    3.66835654704994    3.97198843204117
C         4.94728629734679    1.10920968881145    9.14619623515562
C         5.79440680263823    1.24513230978352   10.24335425996096
H         6.59799326200947    1.96720624302296   10.21566103264921
C         5.61574117134457    0.46629989938256   11.36949519753057
H         6.27138160756862    0.57708106425461   12.21835107397900
C         4.58098387103666   -0.45663463478683   11.40499790269532
C         3.74205212459371   -0.61457592597173   10.31217939355635
H         2.94779768120970   -1.34291392826230   10.33944773022773
C         3.92803927274131    0.15893330343835    9.18204073282166
H         3.28841471248972    0.00140026030947    8.32716459217116
C         4.22263270348501    2.41644509697946    7.17224742658904
C         4.09967275586682    3.55507610578652    4.94182107839728
C         4.48890896755507    4.52471214756226    2.68780817602945
H         3.67057421406173    5.22636816213574    2.88435357531563
C         3.99122508928885    3.39610878818617    1.78345420289937
H         3.18657768832286    2.84153920452291    2.26112080104750
H         4.80166446393724    2.70640812820321    1.55548234415738
H         3.61545216316102    3.80721334615584    0.85129337239352
C         5.64235774575118    5.28771279316039    2.04728437160804
H         5.99845218014957    6.07021997819081    2.71280022714208
H         5.31180666097063    5.74726046921344    1.12082413621738
H         6.46758701688505    4.61537812639365    1.81940312826094

