33
CSD_code = VAGNID | q = 0 | S = 0 | Stoichiometry = C14H10Cl2HgN2O4 | MND = 4
Hg        5.79359196718738   -0.88897263972539    8.16414794640727
Cl        8.08070555582487   -0.90754776889459    7.90904258268260
Cl        3.79247406998701   -1.77957360574822    8.75461828648162
O         3.90839730555816    0.74635700690450    1.03308910974010
O         4.86501763734163    2.73815673289386    0.72390585728048
H         4.37175684987862    2.71278472738518   -0.11132460935599
O         2.86076312155184   -5.12364142044042    2.73582189638715
H         2.27504394405788   -5.79261575793728    2.34759163412945
O         4.19202311097582   -5.69736429378259    1.04068284039035
N         5.52555197006866   -0.60151475539878    5.70351486307611
N         5.33995828011423   -1.78969288377261    5.41431360652986
C         5.78763982578914    0.41823160318441    4.78142150619576
C         5.13033783421645    0.49874667412049    3.55542532060212
H         4.41765785472746   -0.25201775917132    3.24702858488957
C         5.35527201636060    1.58791453333706    2.72411042638885
C         4.63153613978891    1.62501333586252    1.42757067417803
C         6.24273099254765    2.59205912774781    3.10442338543325
H         6.41602959375567    3.42604031543452    2.44333082376110
C         6.88336527898198    2.51371209545407    4.33071701674113
H         7.56495605809638    3.29393106070746    4.63244688833646
C         6.64712128518108    1.44747458784945    5.17667700850072
H         7.14235335123037    1.37355572914765    6.13573784795194
C         5.58109743951706   -2.37189961416436    4.18490654437276
C         4.67741015068330   -3.33732271198647    3.73509393359345
H         3.76893864904322   -3.51393412718885    4.28812035421422
C         4.93747855010833   -4.02018293072942    2.55715983532206
C         3.98596927420909   -5.02772945973033    2.01997681034841
C         6.12042099767484   -3.78719357926818    1.85570242274816
H         6.30266592699852   -4.34477438098082    0.95008905770532
C         7.03855308486042   -2.86857346028299    2.33333415681682
H         7.96640897225761   -2.70647155634626    1.80657903077811
C         6.77291939753593   -2.14903272914832    3.48149760298844
H         7.49875351389399   -1.45152209534325    3.87444675440481

