111
CSD_code = VAHBIR | q = 0 | S = 0 | Stoichiometry = C46H58Cl2N3PRu | MND = 6
Ru       -7.49302976587346   23.26000295474982   10.68828017517122
Cl       -7.70559384511945   22.39129995922850    8.47882703365260
Cl       -7.41418811023734   24.53729262338715   12.69757272497218
N        -9.51191556329984   23.28787147152426   10.70236399814564
N        -7.81731349223511   24.94942983386219    9.81691427844518
N        -5.34535788291312   23.98727675846181   10.34111794719991
H        -5.05486699674202   24.06711896861665   11.32386758921441
P        -6.95427855993434   21.14885853081385   11.82055761005325
C       -10.40668922906332   22.33513746397320   11.21980685652017
C       -11.03603910558072   22.56308375654824   12.44192295101636
H       -10.78040291408877   23.44534388505857   13.01010830236306
C       -11.97385834277546   21.65912086281014   12.90794531464479
H       -12.48177017766531   21.84846311621585   13.84265681558062
C       -12.27984286015730   20.52529135913680   12.17192793131998
H       -13.01162503069315   19.82278815526381   12.54232472275285
C       -11.65861326053608   20.30420306688646   10.95311509463857
H       -11.90627983383555   19.43015449062816   10.36936851317505
C       -10.03366561114987   24.31194830667948   10.08613750855821
C       -11.50421242300425   24.52137835423544    9.87460554174624
H       -11.84097636648046   25.38895807151120   10.44209447875206
H       -12.07998740875213   23.65540813581944   10.18770375954437
H       -11.69708617896877   24.70607563827870    8.81898435703791
C        -9.10175012187349   25.28753304128817    9.58531187447844
C        -9.43911054151223   26.48120428674238    8.94495132925745
H       -10.47197366479245   26.73148061927086    8.77035821245589
C        -8.42554421769649   27.32936672700802    8.55197232328013
H        -8.64771908138121   28.26082230850480    8.05506646290000
C        -7.10781600348502   26.97478567751163    8.81239907375016
H        -6.30981867818477   27.63866152305935    8.52357370498497
C        -6.83229653060331   25.76913775458002    9.44715736756304
C        -5.45679849905466   25.34372987511123    9.79881522307817
C        -4.55120251405311   26.41924894886836   10.40723522047845
H        -5.01708995092800   27.39460297947458   10.50681809423077
C        -4.28830600384040   25.91633215020013    9.02864448631506
H        -3.43796758043511   25.26881719803603    8.87803259703289
H        -4.49606228538548   26.54605446266723    8.17738107196219
C        -3.66485286918481   26.08273362731267   11.55226695589701
C        -4.21261136493016   26.03122264333712   12.83184344560804
H        -5.27250584315749   26.19035698986341   12.96804710530673
C        -3.40780279619603   25.76112340394511   13.92359896562956
H        -3.84421425481438   25.73321048453422   14.91053001850956
C        -2.05305563788142   25.53092721565218   13.75041333191042
H        -1.42405352206845   25.32186588472614   14.60315421786113
C        -1.50555782433428   25.56964915885818   12.47938905944196
H        -0.44959830099419   25.39046645845637   12.33829069623431
C        -2.30577351422710   25.84592611788630   11.38464874170916
H        -1.86623298526841   25.89306829031249   10.39892820791233
C        -4.39604503541298   23.17624352025081    9.65034622887212
C        -4.55700063815331   22.89985963203419    8.29560641668384
H        -5.41449084622920   23.28557120528435    7.76734548257705
C        -3.63591925357769   22.10482038256079    7.63919048900282
H        -3.77995237905282   21.88133248163905    6.59314269533983
C        -2.53711390701276   21.59773994463361    8.31294025545369
H        -1.82204768607473   20.97512253549744    7.79668944657903
C        -2.34985566737557   21.90901438374937    9.64856532478477
H        -1.48096136830439   21.54332712980248   10.17649147617766
C        -3.26715514707437   22.70490629208698   10.31125608891217
H        -3.09878673890983   22.98226534822884   11.34187881470885
C        -6.71817830496870   19.65966746348679   10.71083381674559
H        -6.47276973141469   18.80769614721271   11.35506165030285
C        -7.99970928076852   19.34099069198700    9.94238352304833
H        -8.84310377470650   19.21735301308250   10.62371490245268
H        -8.21234841423064   20.17552717200886    9.27574217494190
C        -7.82068686491443   18.07920061059979    9.10321790430172
H        -8.74915999457921   17.85678716533318    8.57288464972015
H        -7.59452563474791   17.22790928789963    9.75276803250817
C        -6.68556976920411   18.27814890549568    8.10574790122822
H        -6.93850011029553   19.10499124721753    7.44010114608824
H        -6.54926336411222   17.37874607129118    7.50065767570636
C        -5.39782021794419   18.61403868042455    8.84769732221085
H        -5.11156585131439   17.76996338457266    9.48254278815467
H        -4.58797159022927   18.78620408173044    8.13536558953349
C        -5.58289651947885   19.86081141586587    9.70897359191446
H        -5.82849896758299   20.70746355098056    9.06648559825245
H        -4.64098954467265   20.07529789742606   10.21666828888906
C        -5.28361571190555   21.13489229045542   12.70986723920733
H        -4.58689865478276   21.29872841987735   11.87553821067143
C        -5.06925883386621   22.28210708218085   13.70294345876357
H        -5.69242017693036   22.14222010559684   14.58370495459604
H        -5.36205655949020   23.23688003509669   13.26414342999793
C        -3.61470521931145   22.34214396036083   14.16780565305517
H        -2.95166216056641   22.56787626059676   13.32967837597987
H        -3.50466308867749   23.14813453260893   14.89497101824007
C        -3.41273503718669   19.87981433963532   13.80587797965401
H        -2.78911564916622   20.03045158727924   12.92107297863348
H        -3.12417795235957   18.92870999061135   14.25984350080182
C        -4.88228180861418   19.82462735075841   13.39119353018013
H        -5.48404598787342   19.67481900907185   14.28800175128703
H        -5.02812889682989   18.97170144364418   12.72942914126619
C        -8.21810223850556   20.48265079985393   13.04784950232861
H        -9.16905899351397   20.68070830698367   12.54003298993654
C        -8.20752769167241   18.99259174624744   13.40163305260140
H        -7.31286363341964   18.73316685280133   13.96594529285362
H        -8.23655879707299   18.37100005015608   12.50814866320606
C        -9.43510086049416   18.66867775638254   14.25428855944103
H       -10.33984404419442   18.89515853501411   13.68454103213188
H        -9.44359301632167   17.60132732704840   14.48864925487892
C        -9.43245879348325   19.48444102308337   15.54213766640662
H       -10.31608537609729   19.24484480714819   16.13781673038893
H        -8.55131463160377   19.22420830481396   16.13424514016705
C        -9.40889083425660   20.97350605686590   15.21495746398394
H        -9.36110411610823   21.55916039821035   16.13575059228464
H       -10.32752114438589   21.23882635583869   14.69313510074632
C        -8.20552024264149   21.30473590817727   14.33784161064076
H        -8.19013101253084   22.37013088060907   14.09751556472503
H        -7.30690360861688   21.06668912741278   14.90722658504036
C       -10.73770042179033   21.21233298065750   10.46454464115644
H       -10.27522103815370   21.07779929854247    9.49932704844422
C        -3.18560726813444   21.01915202963917   14.79197271115838
H        -3.77057297454725   20.83651889151442   15.69653562169409
H        -2.13275937712883   21.06513292194312   15.07940338612395

