34
CSD_code = VAHFIT | q = 0 | S = 0 | Stoichiometry = C11H18MoO2S2 | MND = 9
Mo        3.47143187431368    0.33531007973340    1.23247869712199
S         1.27018128335508    1.34802791605753    0.95742710866409
S         2.41346487302195    2.38150708651250    2.27908705335867
O         4.56976883604192    1.18601694642299    0.38503790291991
O         3.03840358836418    3.55781467435074    1.68971737752488
C         2.78874111435844   -0.65790397404431   -0.58882659417388
C         2.58621577480619   -0.47663202355874    3.31238870408585
C         3.94668412030251   -0.06855032913115    3.48026951140838
C         4.75431054740742   -0.90554073029789    2.66185170545999
C         3.88666527288768   -1.80396798934897    1.95183940639158
C         2.54753792777287   -1.53569311554481    2.38644874720994
C         1.40365009631672   -0.00832868276040    4.10749375666661
C         4.47100952232950    0.90161674961769    4.49559354312854
C         6.25296551322159   -0.97748534719613    2.67953620297360
C         4.34912312256953   -3.03575336381012    1.22817090877783
C         1.32051138709654   -2.34188442748238    2.08141198274731
H         2.63922724267003    0.08243376226893   -1.37520690301537
H         3.53756488199823   -1.36022500279060   -0.95698087994618
H         1.84668392540140   -1.19224509796532   -0.48715250054198
H         1.08144797169525   -0.80472481169154    4.78114309770253
H         0.56316368792225    0.23875457447335    3.45638471378586
H         1.64405834154016    0.86727208673532    4.70570309561226
H         3.70880585381469    1.61899972152220    4.79425224241822
H         5.32020750318319    1.45755263798195    4.10067995677340
H         4.80304727817258    0.36290289937298    5.38581710793525
H         6.58252887935174   -1.71264385048905    3.41720095960844
H         6.68568186628228   -0.01335767612263    2.93975329790481
H         6.63919652969890   -1.27123661213760    1.70369680752595
H         5.24396146367395   -2.83310428057035    0.64096991764617
H         3.57857279754255   -3.41408757360424    0.56070323830426
H         4.58574796785140   -3.81695296743956    1.95381873684616
H         0.47433915163208   -1.69308842667800    1.85548555256256
H         1.05715157572361   -2.95113937857215    2.94839238230769
H         1.48244822766428   -3.00646347379970    1.23721316232343

