71
CSD_code = VAHGAM | q = 0 | S = 0 | Stoichiometry = C34H34O2Zn | MND = 4
Zn        3.57072974376801    0.19788654845966    5.03885996838880
O         5.29175864736296   -1.34034537915335    4.73428437707435
O         2.31336601986203   -1.22458601378076    3.67697703607944
C         2.74806009650773    0.06660583005716    6.93996834837763
C         1.42782431103191   -0.55510127681298    6.78816095143129
C         0.25213738268555   -0.03600907900058    6.26330720195183
C        -0.86755047292118   -0.84568030975153    6.20601525711206
C        -0.82556300635792   -2.16324530158256    6.65770377892716
C         0.33156611948327   -2.68747620217149    7.20271397367290
C         1.45813740895280   -1.87919053920966    7.28575654000732
C         2.76158091697737   -2.10498056875792    7.86304300457649
C         3.30348008205614   -3.20125541303099    8.52100014401668
C         4.57338932561486   -3.09548891013868    9.05687416632012
C         5.29729883661880   -1.91103052753059    8.94609315317983
C         4.78090439568447   -0.81980096200363    8.27218506956244
C         3.51478450969644   -0.91702197632766    7.71130202147078
C         4.07706208188052    1.99487980813760    4.10633737204505
C         2.82414729319302    2.74187556652298    4.27235064481043
C         1.67530031770951    2.76127036703935    3.49221195865904
C         0.59412579265737    3.51541083723794    3.90912385069871
C         0.64375839362372    4.24761641365732    5.09187383633846
C         1.78933745125604    4.26360876995665    5.86430031518580
C         2.88828343924724    3.52317839839769    5.44977135079438
C         4.21914676278779    3.40206334532799    5.99197810783742
C         4.81913893082228    3.99022144629028    7.09743355464039
C         6.15685606614445    3.74469310652189    7.34017092860461
C         6.89588842559031    2.92933328581617    6.48805740785500
C         6.30756078902198    2.32390899815320    5.39344511644634
C         4.95926356066159    2.54451973187333    5.14504362080606
C         5.66744366848607   -2.47640465959707    5.49913678681675
C         6.25133014906201   -3.49468659185926    4.50230992462507
C         6.49757187672329   -2.66525301706573    3.23085647404809
C         6.26270982767254   -1.22942376565333    3.70854555257691
C         2.31155705991318   -2.63540461575658    3.90276270393181
C         1.20242653131692   -3.20746441231143    3.02619487880779
C         0.19490375367600   -2.06131472371577    3.03060874059522
C         1.11150073968607   -0.84261366432274    3.00303532947106
H         2.75931114396502    1.08881223164725    7.31491777296674
H         0.21646523506806    0.98704281914225    5.91100213477192
H        -1.79259597429540   -0.45291168163500    5.80653208351218
H        -1.71431005172489   -2.77546242494164    6.59218466325539
H         0.35426188783984   -3.70389073120183    7.57049763211479
H         2.73626346835666   -4.11524618340236    8.62860885941665
H         5.00634359532711   -3.93502277157356    9.58191256084510
H         6.27778440846814   -1.84791031481974    9.39719791883982
H         5.34849597373672    0.09671978703238    8.17881355246107
H         4.47524791371960    1.88797832230702    3.10133826683755
H         1.62953740470169    2.19837401703756    2.56917944262939
H        -0.30522209412369    3.53815257400566    3.30921529768642
H        -0.22095211235413    4.81826295082450    5.39911787303718
H         1.83208998349631    4.84950409605355    6.77118454589196
H         4.25142581030806    4.63586448770559    7.75197643654316
H         6.64097679181100    4.19627625051609    8.19425089948577
H         7.94612887266767    2.76828218097683    6.68851290352625
H         6.88987811605170    1.69103114291412    4.73649832477673
H         6.42176832801056   -2.18135326401424    6.23921188484228
H         4.78438850881241   -2.83490484532904    6.02573731893126
H         5.55245241108369   -4.30808029179880    4.31528723698873
H         7.17345982283805   -3.92345661882385    4.88893669339396
H         7.49956073929179   -2.79887998094549    2.83049945778088
H         5.77780622941363   -2.92376464785550    2.45471242140454
H         5.86873502819698   -0.56729522139136    2.93895437364965
H         7.18893601530070   -0.80571373106504    4.12069213602885
H         2.10760949967663   -2.82640203395917    4.96272300582253
H         3.30236279487182   -3.01857864566203    3.65148159005321
H         1.56730032866490   -3.39081189524627    2.01430607656195
H         0.79762798866354   -4.13109938656477    3.43165922476063
H        -0.38006994706312   -2.07209780377242    3.95686992852400
H        -0.48506888093510   -2.08418050111952    2.18257560385633
H         1.37006698713954   -0.56373462338407    1.97280108243575
H         0.68421654487513    0.02180219444113    3.51361734860916

