107
CSD_code = VAHHOB | q = 0 | S = 0 | Stoichiometry = C55H43ClN2O3P2Ru | MND = 6
Ru        2.54793301064975    0.33935238168915   -2.99543720848614
Cl        1.29557306049539    1.25393536968618   -1.18383004638053
P         0.64747298463622   -0.43863925068571   -4.10800504539039
P         4.43735109139214    0.82310125728034   -1.70296725681152
O         2.53249090616569    2.99979413529576   -4.34992352392387
O         2.54267915219287   -1.51748156418375   -2.04425642108131
O         4.99412068160310   -0.09870419427270   -6.82619496739015
N         3.71769644033922   -0.53548769128366   -4.45384564447643
N         5.01315602252073   -5.01393316981697   -3.96824417971855
C         2.54228352451370    1.97870791282207   -3.82478448220000
C         3.22767410010069   -2.53126822388754   -2.32846942192579
C         3.98478459847445   -2.72370314900513   -3.50403040743934
C         4.17265713239965   -1.74009553707023   -4.52308969942496
C         4.98604969542237   -2.22438153199719   -5.71454564469949
C         5.07954944149817   -1.30898024176085   -6.91142642062260
C         4.55206162023178   -3.98692497176369   -3.72532628831693
C         3.19392479895506   -3.62541601610045   -1.31854739590564
C         4.35916902408178   -4.23662517466130   -0.86859096161495
C         4.29499762656952   -5.20324889566170    0.11808591895981
C         3.07411405248007   -5.56740768443776    0.66127816178310
C         1.91250115098783   -4.95302689630834    0.22386896879585
C         1.97186513080843   -3.97864758895440   -0.75423548095290
C         5.30661965509450   -1.96014279598437   -8.22335510832584
C         5.08028986505839   -1.19259669598899   -9.36779467015890
C         5.25375348627767   -1.73291383881533  -10.62611778327229
C         5.67416809464580   -3.04670190752139  -10.75964725236850
C         5.92774699496856   -3.80957884173598   -9.63054771649410
C         5.74430916446506   -3.27662847096035   -8.36798605907366
C        -0.54034224735340    0.77359567271841   -4.76785058684647
C        -0.73704061842737    1.93663868480818   -4.02916021659935
C        -1.66660224132728    2.87237502816675   -4.44497538986362
C        -2.40563110679009    2.65215679723970   -5.59550462044604
C        -2.21962292309698    1.48984307945553   -6.32640290717311
C        -1.29472381040624    0.54787352679002   -5.91476344448484
C         1.13439987814412   -1.42480742623486   -5.55603968272947
C         1.48863379258274   -0.76518251382083   -6.73122019582251
C         1.96383255063649   -1.48079692847121   -7.81387992833974
C         2.12309155763084   -2.85512539407774   -7.72324877531667
C         1.81185612423332   -3.51111803083600   -6.54330626526831
C         1.32116250166609   -2.80058021518409   -5.46168823987888
C        -0.51350894543901   -1.53508322521100   -3.22630987583987
C        -1.40438466968187   -2.33523951527759   -3.93960875909418
C        -2.30687141368422   -3.13421840353314   -3.26462616457082
C        -2.33704151651830   -3.13543012931162   -1.87815941448969
C        -1.46747067389734   -2.32651144008955   -1.16772428761112
C        -0.55806949157092   -1.52419278151081   -1.83729962516700
C         5.89692662648222   -0.03886987889688   -2.35890696445960
C         6.39643740627700    0.37442681343677   -3.59368239506362
C         7.43052391254662   -0.31880638787134   -4.19243924703049
C         7.96050957136389   -1.44292208935154   -3.57504235570541
C         7.45647456962834   -1.86686786594243   -2.35688597460349
C         6.42612259015579   -1.16998134912889   -1.74871717113809
C         4.48617794906419    0.36356667763276    0.06256491502494
C         3.51091493549622   -0.44698895930281    0.63018865112737
C         3.60897023182565   -0.82130562862928    1.95930816232957
C         4.67272564812733   -0.38452385904332    2.72876197927916
C         5.64378190508605    0.43148196663857    2.16814396998795
C         5.55523562214013    0.80463397681705    0.84120712560811
C         4.95552030001326    2.56716884075074   -1.62610926071518
C         3.95994166267545    3.50827213259240   -1.37558144235400
C         4.28116338282606    4.84859632828838   -1.27062622530241
C         5.59608317047378    5.26049321685622   -1.41410060406054
C         6.59014186183989    4.32703620623169   -1.65561275820632
C         6.27642287599569    2.98336592170553   -1.75867035263565
H         3.97542609660943    0.04171900065018   -5.25592065290416
H         4.58602203780480   -3.19225105192747   -6.02116261140270
H         6.01073673692120   -2.39272979962171   -5.35996360800295
H         5.31431444513618   -3.94702466532834   -1.28003611921181
H         5.20305062681234   -5.67329884094362    0.46565675712471
H         3.02914642178558   -6.32624149945726    1.42863747404402
H         0.95839172574522   -5.23044650211010    0.64772522653427
H         1.07109935673913   -3.48951900281892   -1.09711232225978
H         4.76211037295417   -0.16818959724360   -9.24191140486491
H         5.06493876028521   -1.13209721649749  -11.50322873135322
H         5.81083809548019   -3.47430166558378  -11.74174542304998
H         6.27011809004133   -4.82837362374465   -9.73469236549877
H         5.96236254002796   -3.88640341133232   -7.50501033656551
H        -0.16171797033375    2.09812049775728   -3.12580716744389
H        -1.81299988680322    3.77475363070922   -3.87053479131941
H        -3.12870713267120    3.38425507397872   -5.92391475305679
H        -2.79872272582689    1.31510934151615   -7.22179329099214
H        -1.15276028164784   -0.35416525066123   -6.49359951781025
H         1.38710886582053    0.31131556171357   -6.78582359937038
H         2.21686863347860   -0.96848243145137   -8.73022372423270
H         2.50109167706058   -3.41099746633581   -8.56905514731481
H         1.95493227345454   -4.57887026038891   -6.46136703440155
H         1.08239730117749   -3.31543310030619   -4.54015986822094
H        -1.38636238110386   -2.33604174748830   -5.02065900208341
H        -2.99171029872191   -3.75760233540993   -3.82125422339587
H        -3.04356329485259   -3.76382535640164   -1.35577015414180
H        -1.49497900222664   -2.31663128874142   -0.08778842850920
H         0.11220904021266   -0.88141521759312   -1.28314449292954
H         5.96367563492729    1.24101982612631   -4.07841636181200
H         7.81532931722365    0.00980703925965   -5.14718515004575
H         8.76391395603916   -1.99062468915448   -4.04609739521291
H         7.86539577996092   -2.74642558899411   -1.88116388435568
H         6.03044843198081   -1.50291942225840   -0.79838321148273
H         2.67110311729742   -0.78042968277320    0.03866330621393
H         2.84946996015508   -1.45547700208205    2.39240417284342
H         4.74682467958113   -0.67507904521130    3.76654616856572
H         6.47288063396083    0.77754566515738    2.76835229001316
H         6.31375789039521    1.43997534660816    0.40482600105794
H         2.93434518033412    3.18166655114410   -1.25923606955245
H         3.50376126403676    5.57287240624549   -1.07854306053680
H         5.84780634728399    6.30801434370181   -1.33710886062924
H         7.61716780898537    4.64515864967083   -1.76380886556454
H         7.06034639920085    2.26283425410102   -1.94835540297915

