96
CSD_code = VAHJAP | q = 0 | S = 0 | Stoichiometry = C50H41NOP2Ru | MND = 6
Ru       -0.81299966721091    4.45576134607923    2.84631611793254
P         1.19400045417201    4.75572199778478    1.79703368160707
P        -2.82042684460788    4.65006066624017    3.92531955465908
O        -1.26657132780424    1.57843089265167    2.09036457427126
N         0.17273591818473    4.08407593109710    4.65401392685423
C        -1.09179596931911    2.68099214789019    2.39410259450721
C        -0.37754403072606    6.39874686625328    3.44431242421562
C        -0.62873481937846    7.65230817068757    2.87733640748180
C        -0.25034148261806    8.83111715615067    3.49292396866846
C         0.41909572675413    8.81895482387309    4.71228210629575
C         0.69622630389015    7.61417622401533    5.31338614883053
C         0.30006313178844    6.42549046089089    4.69013010667141
C         0.55198751165233    5.15055581763860    5.27852808755038
C         0.38791047135460    2.83907915013605    5.25135323901817
C         0.88804352748452    1.77953804738101    4.49475508835336
C         1.09339557074987    0.54435834561801    5.07590817192675
C         0.79849994654816    0.34301439607907    6.41500523350157
C         0.30036636120989    1.38903435764373    7.17232511364227
C         0.10012553429284    2.63070061515183    6.60041777528064
C         1.37530928817237    5.88598897570858    0.36897878543577
C         2.64911921357786    6.13961270895479   -0.13701580398479
C         2.80838876507415    6.95080177467064   -1.24312440043531
C         1.69994257870819    7.50733183360686   -1.86331781901850
C         0.43202003807020    7.24004449523982   -1.37786237198864
C         0.26927967027291    6.42762647655790   -0.26847215336854
C         2.52777873191696    5.37073444515438    2.88294691795886
C         3.12155113439262    4.51527339079577    3.80788337123872
C         4.03835152041210    4.99914151055685    4.72376075732242
C         4.36155342687395    6.34554284045013    4.73724547765858
C         3.75972503415544    7.20685581782223    3.83435422767203
C         2.84329179123564    6.72636033774430    2.91808102391021
C         1.95370464003995    3.31110171339447    0.95976476150082
C         1.08961918332959    2.62868878110315    0.10594218435540
C         1.53317067186856    1.54115468533741   -0.61991144895773
C         2.85014482290439    1.12431859489931   -0.50075176997178
C         3.71843295368245    1.80991709062933    0.33085486883196
C         3.27881819279142    2.90557981089484    1.05535533318902
C        -3.22516118868938    6.35882516474731    4.40474505406534
C        -2.64003265134833    6.93423528465001    5.53020282067370
C        -2.83307004495768    8.27363427236762    5.80818444937862
C        -3.59699522390089    9.05593320442104    4.95776908858446
C        -4.16130556955032    8.49585762422899    3.82409947909090
C        -3.97190352361490    7.15531841781009    3.54317903314408
C        -4.36687066734884    4.14089070250417    3.09201277444961
C        -5.58732983250334    4.31170371155851    3.74194173807576
C        -6.75915610318623    3.90406334820696    3.13508207310276
C        -6.72381441043193    3.31677534689478    1.87938938519664
C        -5.51319854462595    3.14321778894215    1.23118794144674
C        -4.33642030975267    3.55352569160953    1.83496454833529
C        -3.10130188973334    3.68307371701570    5.46017958444828
C        -2.76304867222779    2.33432356535822    5.38512210731443
C        -2.98591672114690    1.48868702231217    6.45477662813826
C        -3.54937468265092    1.98406493713085    7.61888984362410
C        -3.90527305964396    3.31995772607426    7.69624439231926
C        -3.69261267573370    4.16686681822761    6.62208573158783
H        -1.55085672783016    4.93850242964488    1.58602153420294
H        -1.15245607333328    7.71418409159014    1.93185065672096
H        -0.47537069463676    9.77829951084541    3.02036077630053
H         0.71563357344233    9.74743690016195    5.17971410376269
H         1.21860391458869    7.57248046191942    6.26110344085642
H         1.08149853889250    5.08134776825159    6.23111230990310
H         1.11750808476803    1.93415104771056    3.44744325464863
H         1.48270756015890   -0.26639783270753    4.47794178176687
H         0.95207308413404   -0.62679082239138    6.86409864869255
H         0.05972253171552    1.23886642887802    8.21462980292800
H        -0.31806165071348    3.43646858784939    7.18806639568479
H         3.51486729176770    5.70204489669822    0.34199629668619
H         3.79906906111309    7.14890593004106   -1.62646924610688
H         1.82802861443765    8.14328239072245   -2.72715225174322
H        -0.43414291086833    7.66333673169519   -1.86564857630775
H        -0.71645250343332    6.20105642658561    0.11376297047019
H         2.86246640992859    3.46449275966210    3.81425301988539
H         4.49419955729715    4.32345484175028    5.43396672131798
H         5.07396153496764    6.72396709056884    5.45583449258101
H         3.99709804888750    8.26056368995009    3.85089234976432
H         2.35780942008274    7.40700548144312    2.23235911567126
H         0.06323137880554    2.97246329334210    0.02685458223481
H         0.85532068434356    1.01568312486141   -1.27633573110173
H         3.20037331193732    0.26904655736880   -1.05989089680244
H         4.74816796594821    1.49292648560637    0.41630492659359
H         3.97238591202613    3.43670917365350    1.69209650488909
H        -2.02178047082753    6.33045916443462    6.18207871011318
H        -2.37738007471677    8.71188487110544    6.68446982820126
H        -3.74328535969295   10.10388066196233    5.17466943755742
H        -4.74503463895675    9.10835704482987    3.15221546770249
H        -4.39463078482816    6.71773673076383    2.64880954929140
H        -5.61363636924970    4.76825244399932    4.72202419047474
H        -7.70357140073741    4.04099985697752    3.64185159159048
H        -7.64174002462533    2.99629098911106    1.40854741650397
H        -5.48434282198404    2.68674436200518    0.25270413364645
H        -3.38390669070192    3.43398750570881    1.33364267929632
H        -2.32420405535916    1.95100380012218    4.47300806929162
H        -2.71517399017100    0.44563649477180    6.38138429566166
H        -3.71868532448834    1.32966522675484    8.46146306479866
H        -4.35903846856863    3.70685739654801    8.59784571915599
H        -3.99252764591471    5.20270896342165    6.69463592815558

