92
CSD_code = VAHJIX | q = 0 | S = 0 | Stoichiometry = C48H39NOP2Ru | MND = 6
Ru        0.76881563559089   -4.70911364080091    0.90834973774306
P         2.48223523561863   -4.25951232905713    2.36889992033029
P        -1.05869097589098   -5.13709646185560   -0.38760952707899
O         2.34677576037548   -3.52919415324532   -1.34424550961789
N        -0.23917773771085   -5.44965487128434    2.56098851740542
C         1.70913069742655   -3.97263691334834   -0.48577043056220
C        -0.22870854448646   -6.71956163338842    2.96206750267427
C        -0.91357860673376   -7.17424180302943    4.06973356344419
C        -1.65331221734575   -6.26223048516089    4.81175813352463
C        -1.66970170127251   -4.94696635360432    4.40668185128190
C        -0.95555219736604   -4.55032250304449    3.27039924318850
C        -0.93634852668171   -3.19379649781582    2.74675969998378
C        -1.62720918505413   -2.14056995763881    3.35229259931184
C        -1.59613542263144   -0.88164749502077    2.79583528928246
C        -0.88321587353462   -0.67349783959961    1.62349853125116
C        -0.19542975422973   -1.71515293965244    1.03116441991161
C        -0.17889809621413   -3.00555816181214    1.56814221590509
C         1.96037264416762   -3.36496832088867    3.88182828212383
C         1.42170428647972   -4.12228149471297    4.92125361509921
C         0.89444204329910   -3.50601027021065    6.03986769738277
C         0.88899031947381   -2.12436551801616    6.13229354568160
C         1.42688254162896   -1.36555571031599    5.10684790654694
C         1.95805610835314   -1.97920051449849    3.98691798272611
C         3.46575169088877   -5.58186198183405    3.17236837206274
C         3.49365995485573   -6.85797159267774    2.62750924397049
C         4.25410773160404   -7.85493162780562    3.21490059232963
C         4.99802410391377   -7.58096927509140    4.34928909124858
C         4.98767929101539   -6.30418455817415    4.89073534602440
C         4.22917031335666   -5.30786372517706    4.30720452783246
C         3.81643398285858   -3.20227396690066    1.70568616499873
C         5.16147379188144   -3.55393614879957    1.74335722419913
C         6.11395867164240   -2.72160182556566    1.18062012675504
C         5.73855529820955   -1.53593091880277    0.57388287645754
C         4.39880820662202   -1.18705701437303    0.51726978433681
C         3.44399568284189   -2.01793481725160    1.07093087557545
C        -2.01323922889038   -3.75502937557238   -1.12008991322593
C        -1.24669885010837   -2.81771978907775   -1.80767773746764
C        -1.84490529852330   -1.74793709671290   -2.44361112266964
C        -3.22267575151554   -1.60535346868554   -2.40368387235719
C        -3.99299578134249   -2.54811099783004   -1.74584060297598
C        -3.39607359899159   -3.62461216535610   -1.11168768869076
C        -0.89894522806411   -6.09164156418863   -1.93891447910104
C        -2.04098264106738   -6.45756185380836   -2.64824487066162
C        -1.92395785313884   -7.13817044065883   -3.84431183836971
C        -0.66942194756805   -7.44786909529487   -4.34804985172858
C         0.46745000404578   -7.07843900372250   -3.65013952974701
C         0.35458304262008   -6.40161101727632   -2.44726768441198
C        -2.30761498473394   -6.10602016006503    0.51459161489112
C        -2.29710301885962   -7.49563370728648    0.43458526526223
C        -3.14535679133433   -8.24542390039145    1.22852407133936
C        -4.00011224161008   -7.61745020694229    2.11973129856754
C        -3.99728747332065   -6.23596769716821    2.22329696841784
C        -3.14970893521141   -5.48156541527525    1.43302227338905
H         1.31203482655745   -6.14410069880016    0.57360485937048
H         0.35443898540858   -7.40619977357230    2.36254319845620
H        -0.86984256899509   -8.21643573881581    4.34252206110854
H        -2.20391468818857   -6.57746365024812    5.68574513819761
H        -2.23398589260890   -4.21768729922316    4.96465769633811
H        -2.19067835716968   -2.29990477209926    4.26104429759194
H        -2.12782442227433   -0.06555393962548    3.26433569286646
H        -0.86575111821716    0.31009687570146    1.17279809236423
H         0.34131786963590   -1.50920470115403    0.11235059737744
H         1.42957666177045   -5.20424487034146    4.85560362380401
H         0.48166743276950   -4.10655673336387    6.83824455282189
H         0.47047446829446   -1.64126631471506    7.00305011236446
H         1.43049111239408   -0.28765561087639    5.17677092470900
H         2.37792428385064   -1.37526664108937    3.19686103030861
H         2.91595690581832   -7.05423941206714    1.73407036022332
H         4.26766965224635   -8.84618095495474    2.78519266775343
H         5.59077110738782   -8.35736773269820    4.81064649667205
H         5.57665968926504   -6.08501053588908    5.76982346682475
H         4.22895272439028   -4.31046012177024    4.72647812870568
H         5.47074671531822   -4.48172718917550    2.20193712695457
H         7.15585183452931   -3.00660987126893    1.21214126577743
H         6.48568845210310   -0.89138525117773    0.13456754549961
H         4.09752355354115   -0.27101166211360    0.03007842966511
H         2.39517897293842   -1.76371979919630    0.99913176124035
H        -0.17242771641336   -2.94844919994352   -1.84010039067026
H        -1.24015010403245   -1.02469791082585   -2.97117364636147
H        -3.69572754523287   -0.76596009808812   -2.89203874078549
H        -5.06912862430470   -2.44926528169352   -1.72804559991090
H        -4.01614378094617   -4.35899247333906   -0.61760218147667
H        -3.01815872710996   -6.20908440078203   -2.25602065143507
H        -2.81154146915326   -7.42567164113923   -4.38944984056828
H        -0.58139271477553   -7.97644959706563   -5.28609443805537
H         1.44501139890524   -7.31683670810243   -4.04302235501630
H         1.23458172567362   -6.11749920822171   -1.88398840590322
H        -1.61803759355168   -7.98138875569397   -0.25341570391411
H        -3.13728971194921   -9.32346135342649    1.15612538890160
H        -4.66282236174848   -8.20395268455198    2.73912709019747
H        -4.65327584552430   -5.74487455453283    2.92797737126091
H        -3.13154370583830   -4.40298945824655    1.52918166293001

