86
CSD_code = VAHLIB | q = 0 | S = 0 | Stoichiometry = C29H53N2PPt | MND = 2
Pt        2.96433717615380    3.44422318999143   12.82326145563682
P         2.02890038911456    4.19649576189170   14.71230762222993
N         4.16088642368340    1.47012582222501   10.77477949201025
N         4.13203464758043    3.46731867608801    9.95938287285605
C         2.19102589351707    3.11023268499879   16.22093116848775
H         1.56369029668843    3.46969844541695   17.04305727344948
C         3.65547677531797    3.08465619803025   16.65795152454612
H         4.27173214235665    2.84458447606429   15.78525351025935
H         3.95853012600253    4.06755779940472   17.02320391938182
C         3.89944438930752    2.05495537111046   17.75746957451129
H         4.95811787672496    2.05093611748299   18.02722272035703
H         3.32983254483575    2.33552671665078   18.64770506042130
C         3.47062066575024    0.66423501834832   17.30534687682685
H         3.64010296400893   -0.05997971167859   18.10553255381688
H         4.07173173810985    0.36342108990049   16.44460699493624
C         1.99821922453480    0.68185727760064   16.91308187892633
H         1.39353310525933    0.93833100746866   17.78730790819462
H         1.68760173381582   -0.30911086775045   16.57303063143336
C         1.75865424625609    1.70327759115067   15.80750426706004
H         0.70248127861687    1.69886945248529   15.53317154000478
H         2.33433829703070    1.42219492362575   14.92128909433224
C         2.67271938224823    5.84640420993078   15.29933672698578
H         3.73326011675453    5.65169847784527   15.50869932248459
C         2.04147462904832    6.47369504467772   16.53729556423347
H         2.05524885165873    5.77588469034214   17.37723643062336
H         1.00320947751176    6.73923737475523   16.32854967633217
C         2.80798268553571    7.74131836672500   16.91502320385043
H         2.35751598758764    8.19821954347885   17.79974151189527
H         3.83955906311953    7.47922060304617   17.16393477805986
C         2.80560043777671    8.73859121074705   15.75934963305555
H         1.77842443858696    9.05303019878332   15.55765511545069
H         3.37759799860045    9.62743913089332   16.03547451656796
C         3.39514285516879    8.10713386120107   14.50057098379299
H         4.44461198777783    7.85891481777091   14.67584513454978
H         3.35373572627252    8.82024619080299   13.67387735577354
C         2.62827253756220    6.83990067529130   14.13889633553606
H         1.59352735141463    7.10446038286494   13.90918296334542
H         3.06011411533821    6.37072968626513   13.25151307265983
C         0.19174605189421    4.48918247847511   14.51444805034895
H         0.11837291284595    5.52244382595874   14.15038835523098
C        -0.31900652305069    3.58025591918110   13.39342888471401
H        -0.31053627631209    2.54102845639561   13.72845982229255
H         0.35901675165385    3.65488703708476   12.53180401479320
C        -1.73862795933357    3.96792985815389   12.99861111961270
H        -1.74381440527594    4.99059950519909   12.61317747013660
H        -2.10150420972678    3.31028795554346   12.20566321374487
C        -2.66242843739801    3.87775547806687   14.21105041966237
H        -3.67270918874353    4.19018542528252   13.93655981977293
H        -2.71465854735744    2.83915133096333   14.54710653777378
C        -2.14251737302400    4.74917587096971   15.35145946638613
H        -2.79873025099855    4.65257578608623   16.22002442347795
H        -2.15554392120665    5.79697479787772   15.03977582574129
C        -0.71625925910742    4.35136616484930   15.73321717603310
H        -0.72172059414290    3.31748448001974   16.08290847067091
H        -0.37082300044008    4.98112148808293   16.55442308577872
C         3.82775966659230    2.74879324971380   11.06420986985323
C         4.66580383656347    1.39315431211841    9.50576096643930
H         4.99871038690367    0.48628251203541    9.04776330499840
C         4.64911942330541    2.64662311252968    8.99464537942268
H         4.96485749381991    2.98197419458664    8.02985404879002
C         3.98185736083165    0.37289439816408   11.72620725926235
C         4.46592630815361   -0.94836670371464   11.13138972283751
H         3.89808903562791   -1.21147828558932   10.24122115756772
H         4.32651676025070   -1.73760006629863   11.86587390199119
H         5.52426544455836   -0.90235545260157   10.88205095214557
C         4.78443166167002    0.70299119147601   12.98854604430578
H         5.84670578976752    0.76968412091873   12.76289240030080
H         4.63084002936333   -0.06067130403427   13.74568174295963
H         4.44047167074911    1.67563231359429   13.37343251140630
C         2.49089916519313    0.28428975056408   12.06676068769621
H         2.16453659113362    1.26175457845760   12.45561071459152
H         2.31686647733507   -0.47883032419660   12.81991058022463
H         1.90790284396476    0.04588117829663   11.17967637563983
C         3.95680780925798    4.91820448593753    9.88663996223285
C         4.35133044546648    5.44650211554796    8.50856771269390
H         5.40183864246342    5.25661114088330    8.29788521436742
H         4.19216563882113    6.52160077477129    8.48503483474437
H         3.74102851723649    4.99708750598534    7.72761839864818
C         2.48653107124537    5.24161849519239   10.16700272082111
H         1.84312645875487    4.78713763831863    9.41662621120417
H         2.32761350620764    6.31592246032938   10.16697983752867
H         2.22456323957522    4.83688301717568   11.15837009034160
C         4.84276466593496    5.54647069118518   10.96720728926368
H         4.57304343432555    5.10775061477610   11.93729758732175
H         4.69447801330862    6.62184949004014   11.00523480189112
H         5.89290326479980    5.34037142947326   10.77076129756066

