64
CSD_code = VAHLIC | q = 0 | S = 0 | Stoichiometry = C22H37Cl2OPRu | MND = 9
C        -2.19651121096940    2.85412314473108   -6.33537152239231
H        -3.04231956077985    3.32883233140623   -6.82076912463411
C        -2.39959698930337    1.70013989602271   -5.56091845803169
C        -1.25767107232789    1.02424090670248   -5.04182268204933
H        -1.39821066088178    0.10576204292241   -4.48236073120602
C         0.02890338073427    1.50440665442207   -5.28789315558747
H         0.88327534539725    0.94777533884655   -4.92007747902295
C         0.24463423896193    2.66731457823796   -6.08325119639282
C        -0.88401646273082    3.33485238898713   -6.58909380920731
H        -0.74834548381803    4.17749863560229   -7.25961472675295
C        -3.77061461615848    1.15640784304417   -5.30707400587345
H        -4.51938135813172    1.69140914038213   -5.88731740849439
H        -4.00875541033926    1.26512663451662   -4.24624590821969
H        -3.81360412827993    0.09651908592627   -5.55498507982159
C         1.62963526036838    3.07110608738750   -6.53389846385350
H         1.58576365878892    4.11175183654098   -6.87807871962774
C         2.68194572073383    2.97624768388559   -5.42947505254360
H         2.33304530785241    3.46354418905665   -4.52129128020776
H         3.59835078567068    3.46401594908577   -5.75251887588890
H         2.91756385931291    1.94016517477260   -5.19769018797012
C         2.01849666041712    2.19019634200783   -7.72865349649409
H         2.05666372651215    1.14326628360594   -7.43380336885079
H         2.99922630081795    2.47971893895764   -8.09779974066510
H         1.29807061184623    2.29413481127006   -8.53814510530275
C        -1.16106416668357    6.62592395613686   -4.84016394110028
H        -1.52793349987730    6.48355848865650   -5.86211337466626
C         0.35042217160229    6.40208867644406   -4.80417017207315
H         0.69836074485988    6.50240369528061   -3.77323321573552
H         0.58197166441535    5.38313460152728   -5.12584898991479
C         1.07239372894945    7.41782540618941   -5.68197157079910
H         2.14901640266442    7.24261884702096   -5.64142491024371
H         0.75080177101927    7.30181302806236   -6.72067022714531
C         0.75398096037236    8.83221376163165   -5.20817710609448
H         1.25218472839788    9.56412206373682   -5.84734077203264
H         1.12864611664030    8.96297359406020   -4.19121757663109
C        -0.75258773026938    9.06823066669730   -5.22602050541412
H        -1.11677102817056    8.99839003164156   -6.25457299503642
H        -0.97630951707356   10.07278791797395   -4.86110307584419
C        -1.48091120179254    8.03862036632008   -4.36272153880826
H        -1.16669660937271    8.13918227962113   -3.32225330809182
H        -2.55343805475798    8.22908806416776   -4.41139186774263
C        -3.76043504201829    5.51569891776078   -3.77411470290161
H        -4.13029051948637    4.51318546669036   -3.51840139241752
C        -4.30759256448569    5.89170364460283   -5.14713575815486
H        -3.92728788776058    5.19879192578754   -5.90139529250484
H        -3.98445920514597    6.89748442476922   -5.42169914343538
C        -5.83375681555882    5.85261037823361   -5.11618955490243
H        -6.23443889403435    6.12796215786170   -6.09467995714842
H        -6.16519265587843    4.83707718161225   -4.88884954006731
C        -6.36186369752296    6.80665511192358   -4.04863057009492
H        -7.45250069546056    6.76410576046579   -4.02087303906573
H        -6.07443238535092    7.82955524857958   -4.30405244811591
C        -5.79253353054468    6.44642185118790   -2.67901945402053
H        -6.12763328052157    5.44561495644032   -2.39952045978783
H        -6.16283087479711    7.14651931636298   -1.92769135287655
C        -4.26605288079522    6.47568127230594   -2.70027549430348
H        -3.92204663506119    7.49103173041964   -2.90006889153183
H        -3.87552037923805    6.17219184250951   -1.72918312017823
O        -1.52174027852415    5.76123043893778   -2.31457540668139
H        -0.81148547480204    5.17955624663264   -1.97015133736417
P        -1.91472562339835    5.29780333867821   -3.77590909162529
Cl        0.48550613429361    3.60535697477369   -2.70038597092808
Cl       -2.59433077017865    2.70186186530733   -2.48629367678558
Ru       -1.19627042834061    3.18226858465889   -4.32235961861730

