52
CSD_code = VAHLUO | q = 0 | S = 0 | Stoichiometry = C22H23Cl2F2OPRu | MND = 9
Ru        6.97055134042178    6.61085942248939    2.67728565277388
Cl        5.54490013999552    4.77551618987988    3.13213224741026
Cl        8.69223073884320    5.02636433236788    2.32993917242379
P         7.76571102293805    6.20267525733755    4.77246144717178
F         5.41475686159995    9.96458860286722    8.69139082400852
F        13.50088637300893    6.82812936126827    6.04526602202434
O         7.45939945114806    4.77473080218000    5.36791848061398
H         6.83546857987717    4.30345373912001    4.77124975641502
C         7.87839714027747    8.00220228254589    1.09405107675622
C         6.79873565358544    7.28906899618103    0.49692832595107
H         6.96796476837260    6.75059449841501   -0.42905760606518
C         5.52479678872861    7.32467368082126    1.06670110368481
H         4.70381517504760    6.80962231449483    0.57689234204934
C         5.26107764055551    8.06640390030117    2.25335992324999
C         6.32772767304946    8.77730592997607    2.83430411073867
H         6.14873520641288    9.41218205282571    3.69460581512888
C         7.62260440041971    8.75795329468066    2.25117719418160
H         8.40197930189634    9.38723711503495    2.66790937477483
C         9.23474399536492    7.96143556403021    0.46124130701137
H         9.89577303484692    8.71081753155308    0.89177480579785
H         9.15992095035177    8.12740895783046   -0.61248434632345
H         9.67606956939703    6.97371655169851    0.61718784926164
C         3.85707568461450    8.15954560358418    2.80088388619378
H         3.23900827441477    7.42181524133232    2.27721373775105
C         3.28921496665697    9.55471356153653    2.52134568923291
H         3.86616864084193   10.31617074632267    3.04193966454085
H         2.25933047284720    9.61008562308951    2.86436723688771
H         3.31032237472070    9.77346875056716    1.45536354313438
C         3.81212109313128    7.83239019830931    4.29396724739626
H         4.27790422463851    6.86384831230000    4.47284374988544
H         2.78034092409840    7.78826548965235    4.63242121785020
H         4.33304691974006    8.58448576970910    4.88233808646689
C         7.07885395037426    7.33001074421751    6.03437506628511
C         7.55778495644508    8.63304723479680    6.11766701354317
H         8.37743276848146    8.93621844633600    5.48068406914544
C         7.00464089390246    9.52630818130804    7.01436122544412
H         7.36415526209466   10.53995529295682    7.10094644504587
C         5.96294660783207    9.09549300828916    7.81993784508747
C         5.46807072430226    7.80510475517023    7.75494409241695
H         4.65633567569002    7.50950892451676    8.40058209182897
C         6.03138877197293    6.92303314941005    6.85093102560870
H         5.66242711848021    5.91117099543790    6.77633823852852
C         9.54304861343063    6.38689702082276    5.11697306555813
C        10.38381363526325    7.07080683665552    4.25116123722476
H         9.98700569319363    7.45556837398258    3.32293949035936
C        11.72326669545740    7.22262372128070    4.55715930192380
H        12.40045611172209    7.74087552520177    3.89645119258737
C        12.19745382568322    6.67990477963104    5.73862794203000
C        11.37659417747670    5.99218364867238    6.61616059143476
H        11.78904510532254    5.57892139208153    7.52303363352817
C        10.03901081504919    5.85111838016970    6.29953959017333
H         9.37208921585157    5.31491991472994    6.95776790380706

