69
CSD_code = VAHLAS | q = 0 | S = 0 | Stoichiometry = C24H42Si2Zn | MND = 6
Zn       -0.76736296035459    4.42902721252643    4.27630414191574
Si        1.17178085422664    2.60302437265627    5.97724811412310
Si       -2.30195066774616    7.26291076341135    3.30346798661989
C        -0.10905597652735    2.50981188681621    4.55740542235110
C         0.43649631437379    1.97244095831348    3.29790123812090
C        -0.27787978159408    0.87312972969350    2.93717112396923
C        -1.33351212506196    0.66752481931454    3.89522202665393
C        -1.26431912576660    1.64007799512977    4.84303380939946
C         1.60327933307203    2.56892064810103    2.57662069570123
C        -0.07195930986393   -0.00556722322708    1.74783815838117
C        -2.32725601601321   -0.44203945178543    3.79291479244522
C        -2.18356754520600    1.83127721943924    6.00761536059503
C        -1.09642246022273    6.44210706297044    4.52264468188988
C         0.30252608341181    6.89807156272979    4.55216333208027
C         0.67310750419239    7.11898965411395    5.84709386960894
C        -0.43678426250507    6.81631741586555    6.70736171157307
C        -1.48981401219012    6.40550710006534    5.94186394395129
C         1.14178237068068    7.11854595857570    3.33146809336877
C         1.99170271952330    7.60057260859371    6.35839282432548
C        -0.38243712266667    6.97373801271466    8.19231394010199
C        -2.85816550175794    6.03416931880421    6.42366821336789
C         1.84666439471133    0.83691537383494    6.23779967415482
C         2.60244902470292    3.80300222005442    5.57065426493150
C         0.41101765429166    3.25442835231478    7.60340359217163
C        -3.97752092101439    6.33978352279971    3.23583361817414
C        -2.56594870858930    9.06279395853566    3.88340047814551
C        -1.66628131281169    7.26695120513185    1.50040293325696
H         2.52577254182812    2.03228790812482    2.80529168980724
H         1.73542893404913    3.61384135832412    2.85727844272277
H         1.45201330553416    2.52202461705770    1.49890372140336
H        -0.96259095603911   -0.01386218607128    1.11838279284805
H         0.11914783043243   -1.03138722285958    2.06366090565503
H         0.77196687380888    0.33232263564968    1.15241062454925
H        -3.03202094798161   -0.41294632469975    4.61959313335056
H        -1.82042673714291   -1.40713258513783    3.80640634555481
H        -2.88363465918894   -0.37387615024734    2.85726028618544
H        -2.10185022237262    2.84441846905116    6.39966645490002
H        -1.95261172688737    1.13111639104981    6.81234004539806
H        -3.21817093117330    1.66235507310571    5.71027847822590
H         1.08063505399743    8.15703169223073    3.00103927702245
H         0.81448560385607    6.48058486060267    2.51238194085205
H         2.18914851928788    6.89991227100454    3.53611579152734
H         2.41494844790721    6.88592776993113    7.06517160765878
H         1.86920525761050    8.54990154770304    6.88044761637123
H         2.70020544396361    7.74695616800277    5.54729524463197
H        -0.33665820223733    8.03111901410774    8.45675299550103
H         0.50634911078364    6.49225466936229    8.59951188568234
H        -1.26017355949243    6.54432306201864    8.66918998652052
H        -3.32485744098583    5.30985723516013    5.75791726153195
H        -3.50323392568775    6.91306609298266    6.47621593940496
H        -2.81225438431837    5.60014669816392    7.42158105335611
H         2.32360750444683    0.46372692413563    5.33735939357916
H         1.04573246536006    0.14829767215202    6.48706715140641
H         2.57681381063412    0.80372435706233    7.04016019008846
H         2.23016311013489    4.77084361422992    5.24467990937939
H         3.26175889462589    3.41785075476477    4.80171316914871
H         3.20566257089185    3.96926064901805    6.45749220602677
H        -0.13846734190266    4.17835812394902    7.44554541732795
H         1.20011511399409    3.46358222256738    8.31874119360298
H        -0.25826121588919    2.53716966792553    8.06372754762734
H        -3.84443001194603    5.26109680994268    3.18191666079716
H        -4.53417087298270    6.64197790134659    2.35435500507636
H        -4.59902050409338    6.55588047779109    4.09722014005699
H        -3.25164291417493    9.59359452172835    3.23017801700852
H        -1.62772949154414    9.60870648691540    3.89571144501144
H        -2.97157000225215    9.09645808633624    4.88951260820743
H        -1.35427258702866    6.27808679014744    1.17504308488163
H        -0.83196980340212    7.94414947066374    1.36046627971563
H        -2.45961039772004    7.59156014721093    0.83430901900363

