71
CSD_code = VAHMOI | q = 0 | S = 0 | Stoichiometry = C24H35B9PRhS | MND = 10
Rh       -0.40610487231573    1.34668832955051    9.71669829203513
P         2.76869328286434    0.92850434108488   10.53098984023239
S         2.36873587606745    1.40497558748696   12.38158761516735
B         0.65368803735445    0.31145017095236    8.13486562685350
H         1.06831684652486    1.13032724996595    7.39130082230770
B         1.69608802367855   -1.11036509798593    8.44842956822124
H         2.77515979335548   -1.13214853655652    7.97636697195166
B         1.45548160056542   -1.65678643689346   10.09521905636102
H         2.31945802944076   -1.97479245468400   10.82593440974075
B        -0.21120319283857   -2.09734811080880   10.30748358046880
H        -0.51336919878764   -2.79706285536010   11.20187031325737
B        -1.22526309915865   -0.66561228955401   10.00749074858711
H        -2.17425778281906   -0.57151291629342   10.70371331779795
B        -1.05185632971898   -0.20664185460577    8.28523477627167
H        -1.92654990487408    0.20408294088964    7.60961589315209
B         0.16580320559104   -1.29899138873768    7.58211562038631
H         0.13310505681870   -1.54857933498963    6.43225627543491
B         0.63839738048744   -2.50763152251786    8.79539250846587
H         0.94309268780810   -3.60713812092163    8.51267162704637
B        -1.04175867699876   -1.91882581841481    8.75698399423888
H        -1.94029013403340   -2.60938987673890    8.44160308665069
C         1.37599315488704    0.03743866188806    9.67123985034226
C         0.31118894503906   -0.51117130503619   10.67186365109074
H         0.45360216457223   -0.25292345433044   11.72162913302422
C         3.33765986091694    2.35420063803229    9.52366414901464
C         3.45856010246477    2.32578466492682    8.13874449025923
H         3.13589232726661    1.46298250067588    7.57919325834976
C         3.99076714328803    3.41358874975228    7.46904081209818
H         4.07503315062154    3.38742708801383    6.39250763086869
C         4.41989757696123    4.52841728079120    8.17043570763230
H         4.83350077014310    5.37422191903691    7.64155457316682
C         4.32528149732176    4.55067279457980    9.55176700594929
H         4.66907638804831    5.41094240349285   10.10717969524409
C         3.79144040202458    3.46566835964707   10.22338491944559
H         3.72282965142329    3.47238797615548   11.30242272591405
C         4.27932938590999   -0.12616720351002   10.48399211104825
C         4.63077343560213   -0.79529517906088   11.65022852707313
H         4.01329679249827   -0.68248565949610   12.53121542938467
C         5.76251332720002   -1.58664838937503   11.69331820285110
H         6.02182057590803   -2.10389158789352   12.60503634833331
C         6.56104043785361   -1.71042471184137   10.56878787161002
H         7.44640551137017   -2.32785496582655   10.59781923253322
C         6.22699422645912   -1.03073543079087    9.40984654992903
H         6.85356205324237   -1.11392478937646    8.53399053090704
C         5.09360381527708   -0.23858167105787    9.36469275750040
H         4.85738478577156    0.29551224963291    8.45788834320628
C        -0.35461469823562    3.58926901702357    9.25415036443888
C        -1.60848732700177    2.96620032583549    8.94512919794380
C        -2.18535468899529    2.51067299231752   10.17862153376882
C        -1.28183551484748    2.86198461236374   11.23092704679395
C        -0.18740948981924    3.57129688142408   10.66697411989720
C         0.46308712862047    4.36730377273897    8.27045593633160
H         0.50966371180023    3.85619386429112    7.31121935523100
H         1.47798311437204    4.52089581330098    8.62780113143301
H         0.00561159661254    5.34547430435539    8.10868806173443
C        -2.31480951595483    3.08622285481899    7.63059826906660
H        -3.14432662806145    2.38862728166140    7.56533059689825
H        -1.63887649683161    2.90121717163088    6.79927275111670
H        -2.71012620230642    4.09883219426379    7.52896607296155
C        -3.59574715725838    2.03711052796603   10.34965716679045
H        -3.71807128807250    1.49029910519196   11.28064153486841
H        -3.89710906833718    1.39104894124020    9.52912619436416
H        -4.26414779542305    2.89988031768945   10.37254909173114
C        -1.50509016107554    2.69051420177860   12.69983977411725
H        -0.56579549660232    2.47411650354612   13.20588393965147
H        -2.20563235933860    1.88397995306872   12.90236300469195
H        -1.91071953428162    3.61115608554462   13.12378794835808
C         0.79758787014723    4.36134375541801   11.46203639931469
H         0.26946995467769    5.16703733825701   11.97522903764328
H         1.55887038568704    4.80088163461552   10.82390989162520
H         1.28186554944621    3.75029760572091   12.22067412777709

