121
CSD_code = VAHPIE | q = 0 | S = 0 | Stoichiometry = C43H72Cl2P2RuSe | MND = 5
Ru        2.31418058654725    3.59968162983891    5.24590767906566
Se       -0.74503331513657    2.51563293245261    4.67428957976729
Cl        4.29046953435699    2.58442999939833    6.09505683763718
Cl        0.60133467432627    4.97873452909201    4.37584192512460
P         3.09810975092210    3.12612364300780    3.06968124375024
P         1.74135505499508    4.32307953850405    7.40310506222401
C         0.96476114906394    2.24541739211091    5.25531584315712
C        -1.53415743275816    0.76239588971223    4.98640447470923
C        -2.87383443677487    0.72701561316145    5.35039845447163
C        -3.50188215295249   -0.48461706214173    5.56865911447887
C        -2.79605897258047   -1.66729102143514    5.41720151255667
C        -1.46487374755043   -1.63275165871529    5.03785447344359
C        -0.83415672266214   -0.42145879862981    4.81599227937391
C         1.72210663809638    2.93862527506894    1.81113891801024
C         1.10294194833128    1.54281714325138    1.87411804780424
C        -0.23967505024280    1.53629340875394    1.15298863668188
C        -0.04016681948223    1.92582277530161   -0.30823891472479
C         0.66119857058621    3.27654696487660   -0.41209724171183
C         1.99116652570259    3.28017230324934    0.34532290255466
C         4.24693705816550    1.66392162020869    2.94025464837203
C         3.70248915895225    0.40019126360865    3.60961516049462
C         4.82928695988185   -0.62023716301586    3.74693346410991
C         5.40174109205234   -0.96246659852990    2.37445588132518
C         5.89718668326520    0.29696377888900    1.66967752474674
C         4.77573393553499    1.32875329730120    1.54773989129336
C         4.12479510226958    4.49539400776247    2.33343483552494
C         3.34225166241423    5.80989910901496    2.37168469663229
C         4.12478426650315    6.90851787726266    1.65981175169585
C         5.48391910544047    7.10728552435159    2.32283166443089
C         6.26385016961953    5.79634707311732    2.35696168084046
C         5.46927036102990    4.68220162010294    3.03714374052919
C        -0.08110271549561    4.58205912144893    7.69565225906459
C        -0.51742319512205    5.72432724026793    8.60987932030228
C        -2.03424299556355    5.89145266435621    8.50294607680853
C        -2.76078713377188    4.60067363814286    8.86837944735998
C        -2.28312936921146    3.45007605712655    7.98803220003059
C        -0.77331907408245    3.28672210195390    8.11989973196473
C         2.51196540949700    3.48678732603119    8.87687452263617
C         2.06223600177023    3.92875541932711   10.26892135341009
C         2.95354397819953    3.26587096420311   11.31943240705834
C         2.87268279096877    1.74621285116629   11.21268541258578
C         3.25510856879740    1.28850789674908    9.80852229350125
C         2.37231601801501    1.96525286754849    8.76431329854826
C         2.47444150672009    6.03618262115809    7.31741616221414
C         2.82725301299514    6.78304514195151    8.60213416105413
C         3.38823474899031    8.16333148991626    8.25960367132716
C         4.64145887600964    8.03155892522151    7.40141474342318
C         4.32946944420905    7.26027852825521    6.12248533724583
C         3.73719103434987    5.89713563043321    6.45739899340608
H         1.10412766870607    1.24044704859042    5.67641656779105
H        -3.41390325035311    1.65816324687961    5.46228829926418
H        -4.54240088503422   -0.50741449305119    5.85810550193818
H        -3.28463085210298   -2.61501250790714    5.58833095960723
H        -0.91449270635631   -2.55329258032239    4.90723776479579
H         0.20239585844933   -0.40773841041803    4.50768158336974
H         0.96578269708715    3.64584464380814    2.18513234339417
H         1.76289639286458    0.82027880841432    1.39051342423385
H         0.97268720802974    1.24493835074061    2.91842686657442
H        -0.69552357734870    0.54552033930006    1.21992243869801
H        -0.91411502213521    2.24759369787933    1.64004345530941
H         0.56622521039399    1.16313939622567   -0.80416079586027
H        -1.00360622393303    1.96908502464739   -0.81994163742557
H         0.83883268213920    3.52135547740291   -1.46199447148596
H         0.01356291477254    4.04990637674588    0.00718901954413
H         2.44198490475884    4.26582602005005    0.23527763165180
H         2.66568166749474    2.54588697641989   -0.09936060820937
H         5.09126049545617    1.98657423991052    3.56633661200395
H         3.31223433785303    0.65597695649274    4.59748618150985
H         2.89993106072889   -0.04245141636967    3.02046079544786
H         5.61306279259125   -0.20529438249987    4.38320675982597
H         4.45202266477995   -1.52476661875823    4.22869046362834
H         6.22270695281859   -1.67496449754348    2.47828348813089
H         4.62572215829742   -1.43516985072693    1.76646488838204
H         6.72239032006004    0.72812760671874    2.24143056329179
H         6.27494260630001    0.04432002056682    0.67579989217776
H         3.97587291831040    0.91121257243244    0.93332940029143
H         5.15930030294270    2.21939667416091    1.04644009301479
H         4.31915312562006    4.22625792033237    1.28764097571804
H         2.35966999730443    5.69172520847369    1.91126610965188
H         3.17294723557320    6.10525594367310    3.41111170542494
H         4.26754494748894    6.63244802313051    0.61146001471607
H         3.55801959704386    7.84146891568244    1.68434640841342
H         6.05743490732766    7.86302144198130    1.78148073455159
H         5.33563023421707    7.47062503076298    3.34127279158428
H         6.49489149242942    5.49076022215700    1.33272797214119
H         7.21145768809300    5.94145414767940    2.88066121278623
H         5.30850921003197    4.92425575379702    4.09207512206553
H         6.05663859533351    3.76312242487294    2.99800169271213
H        -0.43746152212474    4.82528716567073    6.68145691775006
H        -0.24710734498358    5.51363902647562    9.64609125479524
H        -0.04296947320927    6.65939833767006    8.31028051175145
H        -2.36077443671837    6.70034074920461    9.16057898514228
H        -2.28861430945989    6.16849382322427    7.47752534486416
H        -2.56622971414293    4.35783042980525    9.91636504666232
H        -3.83782818179696    4.73774620002492    8.75324437513239
H        -2.78512530469784    2.52265326908121    8.27299795236152
H        -2.52749672569723    3.66010790438231    6.94214375587212
H        -0.42884506762008    2.45663367419211    7.49452563898970
H        -0.53376620495699    3.04998943772142    9.15787466736182
H         3.58100992663321    3.71979010238638    8.75601607380802
H         2.10992276648663    5.01053291409349   10.38386303894708
H         1.03120401014853    3.61657902243295   10.44158415205614
H         3.98803990796181    3.58477556150408   11.17106097133796
H         2.64484619468259    3.58734696245819   12.31721128309348
H         3.53438160973729    1.28667171001566   11.94986041609478
H         1.85214722369995    1.42273690776777   11.43366185321691
H         4.29864108254132    1.53989049111482    9.60928002991991
H         3.15302768459926    0.20445629934571    9.72930506782584
H         1.33461926901815    1.66656188033713    8.92043634260211
H         2.67707260170743    1.64451960993795    7.76655557878427
H         1.73226259189921    6.61656706613142    6.74647802738580
H         1.95150343379226    6.90079970275208    9.24104241322803
H         3.58648762812340    6.22375583939086    9.15331509314162
H         2.63379599689922    8.73915865926726    7.71788995021550
H         3.62223363653656    8.70171186173977    9.18053586712528
H         5.03035775800754    9.02059728852983    7.15090544834987
H         5.41302947524842    7.50140735405650    7.96501645038784
H         3.61590225426858    7.82942679997456    5.51990563807126
H         5.24527625997278    7.13433090196863    5.54001526038355
H         4.48179206484186    5.29260234722117    6.98884620670382
H         3.47768833549766    5.36260455554134    5.51087100562570

