76
CSD_code = VAHQEC | q = 1 | S = 0 | Stoichiometry = C34H38N2PRu(1+) | MND = 8
Ru        3.86151139875761   13.07235735924681   13.20327732746586
P         4.63905706490867   15.09998768257998   12.47194067256897
N         4.50318878937683   12.32347115151231   11.19525241733666
H         4.39957165608417   11.30819039418228   11.23750635716537
H         3.84176744886664   12.65161123724774   10.48762734012903
N         5.65048458040278   12.47356005211036   14.03077605755218
C         5.86615742200025   12.64874389882422   10.73755094146292
H         6.18985589889366   11.93848267157751    9.96526661847250
H         6.55015709118345   12.55696127761377   11.59189465074277
C         5.97309106787707   14.04228799005812   10.17085647039341
C         6.57900990172506   14.20888621383384    8.92992115713799
H         6.92904593894335   13.34024650980731    8.39080912914834
C         6.74959143450129   15.46468882854511    8.37726199541152
H         7.22341013094432   15.56861661991228    7.41380139634619
C         6.31051376353601   16.58340187160941    9.06602385022648
H         6.44305772278345   17.56862914968165    8.64686331610659
C         5.69684179225141   16.43131332030721   10.29320546369959
H         5.35093510999079   17.30173919509304   10.83280000910627
C         5.52063772797967   15.16887056298202   10.86057397315561
C         2.84647324169505   11.72738691692103   14.71177784259012
C         2.69113117918366   13.10808753602343   15.09433459429800
C         1.88138558096184   13.74571730043287   14.09302934980184
C         1.64560668208652   12.80626023013598   13.04602905296249
C         2.23698880535656   11.54762002488499   13.45025258109666
C         3.37591490285968   10.64401364304524   15.59890951744941
H         2.56440200538038   10.27532730218862   16.22900072590944
H         4.16572210846491   11.00839952542034   16.25392493742383
H         3.76129420922672    9.80240937028453   15.02601513857565
C         2.93753393308101   13.63988726342171   16.47406057653295
H         2.09791730135460   13.37413046555879   17.11940237428297
H         3.02717363183314   14.72350337529369   16.47261395049292
H         3.84171446581208   13.21834120791226   16.90984424580675
C         1.20190103745350   15.06613342412489   14.26638764624608
H         0.34041752482037   14.92811106822156   14.92247038757148
H         0.84973075597374   15.46803354378475   13.32050170136385
H         1.85678123440176   15.80275712212103   14.72699954002020
C         0.62600864535103   12.94256031639229   11.95377318475795
H        -0.31848032526223   12.50965148552635   12.28889783104149
H         0.92672172456591   12.41688006670245   11.04821421731923
H         0.45018854250839   13.98613361929374   11.70603633119992
C         2.00790638099169   10.23664629543723   12.76117293756473
H         1.08388854139285    9.79181170684059   13.13484827373136
H         2.81463416929543    9.53103401209944   12.95614456309018
H         1.89890484317331   10.36101898557555   11.68463170464518
C         6.08152454176197   11.21847632312033   13.84315948364392
H         5.66072526411135   10.67398599470173   13.00552554146740
C         7.01504752646278   10.60269854001831   14.65421356261498
H         7.31808065455542    9.58867375805501   14.44779467584622
C         7.54361511955848   11.30251401138770   15.72871500055761
H         8.27194252952873   10.85112035441926   16.38264710697165
C         7.10076786023807   12.60081803843320   15.93221402206115
H         7.47303957967716   13.19462716353552   16.75142099583412
C         6.16527535218561   13.14151733562922   15.07012235143656
H         5.82002392088974   14.15736362235749   15.20894639650702
C         3.31019235533541   16.27667265699276   12.03695575631562
C         2.43866323243394   15.83547680268652   11.04319354258476
H         2.59165802897269   14.85266153554097   10.61211755148494
C         1.40228393456679   16.63757239985490   10.60833351745950
H         0.73558716783733   16.29073036857130    9.83251329193769
C         1.22100441536845   17.89241683552277   11.17048994373525
H         0.41036805918994   18.52151799132350   10.83673619704057
C         2.08582290950074   18.33858061091614   12.15470874935654
H         1.95107593940376   19.31859814853318   12.58690904060615
C         3.13184654757890   17.53921840314157   12.58677494235599
H         3.80926191688858   17.90949101475493   13.34222323265953
C         5.74328508687040   16.07968851431101   13.53907122457480
C         5.23873931846115   16.47821206260283   14.77773100655690
H         4.21508227735205   16.22939748970512   15.02910774352625
C         6.03329581951254   17.17331667068467   15.66893005161034
H         5.63130655590296   17.49109538268485   16.61948862103666
C         7.35027959579527   17.45752976338282   15.33991799802398
H         7.97342369713950   18.00116509307515   16.03305333991853
C         7.86704684107867   17.03592234869330   14.12633138542607
H         8.89570198463495   17.24660296516836   13.87590685844750
C         7.07207275297959   16.34395007581962   13.22805436412060
H         7.48351215121455   16.01538592994799   12.28451015497332

