91
CSD_code = VAHSII | q = 0 | S = 0 | Stoichiometry = C45H39O4P2Rh | MND = 4
Rh       12.12164040457382    0.90342046422825    4.10561523853060
P        10.08055563126657    1.67576226298062    3.47089013155050
C        11.41847693527988   -0.55495982640104    4.94408019922769
O        11.03792202912423   -1.51854533363643    5.44813483858626
O        14.09076730004407    0.10507315754560    4.31982910199612
O        12.97570832407361    2.36413557200768    2.96595269638946
C        16.44575206480453   -0.04278862760064    4.33554532643737
H        16.22201709565141   -1.02916679207472    4.73396192784254
H        16.95259329279302    0.54259345322460    5.10127383298426
H        17.10741089017267   -0.13527925087712    3.47820302334286
C        15.15756394334313    0.65622368014941    3.94668961719494
C        15.27661950679192    1.84336864665015    3.21670983377162
H        16.26933726341443    2.18129236553232    2.96257380876832
C        14.19546827702410    2.58871938503662    2.74539275813749
C        14.51023901436558    3.79404419640615    1.87999887008484
H        13.59224358535278    4.18143037665698    1.44253894643477
H        15.20527483838584    3.52335401235626    1.08881823305021
H        14.96829923117542    4.56880780849158    2.49330986731502
P        12.43719828412050    2.58652153305580    6.27278040439881
O        11.20595425052764    4.06545704520053    4.27171359060837
C         9.04645482284044    0.55080095570443    2.47290948972757
C         9.66732904292834   -0.53258374448237    1.86248229667494
H        10.73220217428362   -0.67855741374550    2.02201533179892
C         8.93668732978034   -1.40327081792035    1.07441016424206
H         9.42262081674827   -2.24445083747316    0.60213129976004
C         7.57844508036094   -1.19680889212876    0.89583345363947
H         7.00377679983459   -1.87765265092593    0.28504756369590
C         6.95418781796728   -0.11836239212309    1.50293839099284
H         5.89457543927983    0.04034969931667    1.36316603671466
C         7.68298828979942    0.75577049406500    2.28885790322980
H         7.19685052573746    1.59660977125099    2.76395827931808
C         8.86468738426456    2.19775381861057    4.73140502671049
C         8.59223685349159    1.29782439184349    5.75626087026739
H         9.12403237013429    0.35728195383524    5.78325288657836
C         7.65434193935289    1.59981220382868    6.72444291104722
H         7.44392266661473    0.89104281045715    7.51147649137592
C         6.98805264550898    2.81355041333226    6.68777342212026
H         6.25931634366542    3.05497084245118    7.44732052443674
C         7.25887333922710    3.71694842993128    5.67522694907736
H         6.73937894228365    4.66420462089806    5.64312094446869
C         8.18724353577478    3.41054670042721    4.69588893930210
H         8.37723752208074    4.11596960519669    3.89903780916039
C        10.16379135283065    3.13889424398446    2.39927129506799
C         9.77756875879530    3.20800804660744    1.07009660074491
H         9.28437754708197    2.36563033386458    0.60780630406997
C        10.04457486933264    4.35458723008312    0.34212198730881
H         9.74828804393621    4.41316201941235   -0.69459970834619
C        10.69585540645812    5.42857420023762    0.92640712805025
H        10.89349371484015    6.30382216750737    0.32850370622790
C        11.74911384003778    6.53754466596659    3.00162610231609
C        13.92267798665842    6.49875587738552    4.38270333139412
H        14.26339644517639    7.40927293619636    3.91661945821121
C        14.71484079924415    5.90683989872654    5.35271454985799
H        15.65908886390453    6.35971534677763    5.61694469246741
C        14.30748075555168    4.74857032026512    5.99034781704790
H        14.93455865130933    4.29128108946260    6.74078997689699
C        13.09599983923409    4.16561534506398    5.65030591805244
C        10.82343835830581    4.22726002851906    2.97388708096343
C        11.09363920429959    5.38852270542615    2.25673327771974
C        12.71299843242816    5.93017079572971    4.00590509131872
C        12.33221394607357    4.74905259401231    4.63564932528527
C        10.64522323979656    7.26703358274576    3.79578428298452
H        11.08036498556107    8.06451186437885    4.39517452498013
H        10.12763197950283    6.57809599162519    4.46095167469321
H         9.91587641430870    7.69798099432101    3.11254645824767
C        12.42841454203771    7.53486469096129    2.06422367909437
H        13.21719663641759    7.05257008547336    1.49105890625230
H        12.85526846565330    8.35672489028077    2.63295135390613
H        11.70288826836277    7.96292685791805    1.37760088034846
C        13.64624185125213    2.19024629646093    7.59072183204574
C        13.84473261689491    3.01502120619423    8.69513537822957
H        13.27524083772110    3.92937753791464    8.79116175291456
C        14.76305225806170    2.66283045129746    9.66613159011252
H        14.91621626378612    3.30717051550802   10.52025508197312
C        15.48579225350335    1.48520886927855    9.54897595843029
H        16.20229540400851    1.21464419991724   10.31112228413148
C        15.28248961803208    0.65499462247752    8.46019070451784
H        15.83740775375198   -0.26800080418563    8.37266331548277
C        14.36283399073820    1.00453650951375    7.48596774552892
H        14.18631317120771    0.35724480764353    6.63789119893154
C        11.09349272493341    3.17023488999730    7.36935973089124
C        10.53518367349765    4.44076292091081    7.35051139237193
H        10.90088169620016    5.18714942391861    6.66089167801907
C         9.51898023247617    4.76656826650352    8.23175851679614
H         9.09365155296993    5.76020679442175    8.21300175209161
C         9.05491494259397    3.83390716536179    9.14215453411015
H         8.26930285288415    4.09729621121546    9.83511629061386
C         9.60150535800845    2.56029519944226    9.16014638772853
H         9.24151535098301    1.82717276202599    9.86751064968154
C        10.60451597188257    2.22865818402397    8.27252332087662
H        11.02909443353812    1.23307107642630    8.27241397855569

