30
CSD_code = VAHSAY | q = -1 | S = 0 | Stoichiometry = C13H12NNiS3(1-) | MND = 4
Ni        3.25210879110086    0.19088035552242   14.82065755679613
S         1.31349767429998    0.29713731746072   13.77961874957037
S         5.21980839828958    0.14159117473930   15.80529005239140
N         3.95128039849820    1.48335417591251   13.57378876315690
C         1.87574221358284    1.26607469879846   12.33738717117648
C         3.21186241218489    1.89479644851515   12.53081039270911
C         3.66914233306843    2.85731954075414   11.64068108201080
C         4.92423499232561    3.41184528159317   11.82048264288126
C         5.68451932478572    2.97786407252973   12.89167371454063
C         5.17228939634247    2.01355423459037   13.75002257111505
C         5.97410735225926    1.54697415479240   14.91552002251393
S         2.49941087451318   -1.41645228414347   16.18126810046495
C         1.99868038895454   -0.38932942392466   17.47851100803530
C         2.08210880890644    1.00208655272889   17.35522527544186
C         1.68785323062797    1.82721077940011   18.38459694473771
C         1.19366007540013    1.28724529699392   19.56374828207940
C         1.10100214309296   -0.09081436234330   19.69384868425790
C         1.49714942481539   -0.92383687326408   18.66856219970225
H         1.12100775857301    2.02845895822502   12.12290148865601
H         1.92214556240356    0.58319454908548   11.48183479632037
H         3.03755985241106    3.15893570739656   10.81798853421569
H         5.30100845916339    4.16375940527023   11.14094789456309
H         6.67136608623758    3.37699100462760   13.07507237660523
H         6.08658566319840    2.36840023503317   15.63112877173725
H         6.97349574201999    1.24475660918921   14.58700650639200
H         2.46989947659022    1.42040202660057   16.40766776121031
H         1.76177448086715    2.90165210699002   18.27282793959370
H         0.88286243402833    1.93512818737544   20.37285247753375
H         0.71459302308705   -0.51792531020943   20.61133902561129
H         1.42794322837629   -1.99675462024690   18.76893921398953

