53
CSD_code = VAHTON | q = 0 | S = 0 | Stoichiometry = C8H22N12NiO6S4 | MND = 6
Ni       -0.00044295301020   -0.00054651614683   -0.00035077511427
S         0.49680309280052   -2.40393360150301    3.63650412311665
S        -1.99044469348587   -0.86955737421500    4.79781300056680
O         2.32302353674975   -3.71722139219451    3.14161513065900
O        -1.71578669711408    0.44139488595910    5.29547534218997
O        -3.28249373817317   -1.16570280025146    4.26432383105360
N        -0.83441628471826   -0.58473280725369    2.42179584000761
N         0.10893683823211   -0.93286738248391    1.55658021429365
N         1.93668173716235   -2.39667692916107    1.33998911610633
N        -1.67573728820221   -1.95105930748693    6.00734879196693
N        -2.25474180578801   -0.23327543839334   -0.02045663552773
N         0.36623716058594   -1.93155481433698   -1.14426205288858
C        -0.78953541186681   -1.22979989446482    3.53122019952425
C         2.62526871121052   -3.35093195237017    2.00466419157602
C         0.92437750356398   -1.87894332083889    1.99600845058222
C         3.79604288016774   -3.91991436458827    1.25411070325428
H         4.71405883823123   -3.52870113959919    1.68934245803327
H         3.80903232791275   -5.00109682749161    1.36493809934795
H         3.74712726457836   -3.64291591098884    0.20593824040169
H        -0.79077982857192   -1.81525335136199    6.46508089454011
H        -1.85844410384627   -2.90948427306387    5.76448418194167
H        -2.64769219540712   -0.96614695354386   -0.59961360032177
H        -2.59279261729359   -0.35247041357403    0.93060225450768
H        -2.57865881675795    0.66845857364379   -0.36950751674895
H        -0.42229205141451   -2.54978083958608   -1.29530192338315
H         0.78783840605054   -1.71498430888978   -2.04310788605591
H         1.05586619680033   -2.41511850369480   -0.57037027725254
N        -0.10982951985112    0.93190227603640   -1.55721374476401
N         2.25395958209441    0.23241689039334    0.02000192206761
N        -0.36688750740614    1.93066238505446    1.14356122965538
N         0.83404374612955    0.58440355312444   -2.42214600635527
C        -0.92506373714851    1.87823322582320   -1.99645563964442
H         2.64678410998358    0.96514947634345    0.59943416735015
H         2.59214075861274    0.35200244964154   -0.93097390700131
H         2.57807426086276   -0.66934807771320    0.36876047468241
H         0.42176062258832    2.54878087231677    1.29441498406451
H        -0.78837346888318    1.71424960671119    2.04250048706105
H        -1.05655289994439    2.41430791697536    0.56979475123800
C         0.78983391947801    1.23036079306328   -3.53107968566561
S        -0.49654859430064    2.40444513340139   -3.63631609417449
N        -1.93787042023598    2.39530742976576   -1.34070514819015
S         1.99173166124074    0.87135963352947   -4.79703594332764
C        -2.62636414031750    3.34981487227878   -2.00516437208388
O         1.71581931086782   -0.43806048311211   -5.29812180628188
O         3.28356727953027    1.16440294574921   -4.26098660259788
N         1.68036762632175    1.95620123289871   -6.00451389184736
O        -2.32337516571145    3.71711067472940   -3.14158026419986
C        -3.79792273643564    3.91762047982382   -1.25497416890713
H         0.79581799477484    1.82286066112779   -6.46377936746183
H         1.86433090099465    2.91378344215580   -5.75926222280938
H        -4.71541663639942    3.52555209269902   -1.69054865370984
H        -3.81195317703281    4.99880672867233   -1.36564539412066
H        -3.74910977785076    3.64049074616941   -0.20682949980063

