71
CSD_code = VAJDOB | q = 0 | S = 0 | Stoichiometry = C35H29Cl2O3PRu | MND = 9
C         5.18223426779758    1.51455084796680   -3.52288881751553
C         5.22504328706659    1.11351111164651   -2.20614864969432
C         5.30847599091841   -0.23322796447163   -1.83208346560500
H         5.33779786757039   -0.47460355533753   -0.78104654693511
C         5.31720439498904   -1.19506313087928   -2.80097436411309
H         5.37941538294224   -2.23809977432543   -2.53041063985188
C         5.19465933058652   -0.84924275546322   -4.16311373007157
C         5.12897591354255   -1.83688796470463   -5.16818435072346
H         5.20053506071845   -2.87420576180165   -4.87476281400272
C         4.96164777951769   -1.49475627823341   -6.48024551530498
H         4.90867223755597   -2.25784969156235   -7.24290421761906
C         4.83789226391867   -0.14558907479132   -6.84305353854769
H         4.67769263641149    0.11290907438292   -7.87960252441126
C         4.91067354483194    0.83756371350142   -5.89606852682075
H         4.79847682833100    1.87260582783066   -6.18148121275638
C         5.11328271120108    0.51869982192783   -4.53641753462098
C         5.19563026430855    2.95889926529978   -3.83067012619278
C         4.27486375384682    3.79964492483484   -3.24417672578870
C         4.23091302889802    5.17018042204207   -3.53862497970423
H         3.47725056756204    5.77268954518967   -3.05547276829614
C         5.12205625275647    5.70839611342548   -4.42098301067173
H         5.08444940337536    6.75974871593892   -4.66532750620442
C         6.12676823303838    4.90733167098503   -5.00212357766248
C         7.09355418238817    5.45766334370256   -5.86960839418965
H         7.03060052610324    6.50935521612514   -6.11004197662859
C         8.09491139120522    4.68430025059003   -6.38470487708413
H         8.83254807226510    5.11293799998138   -7.04687832358766
C         8.18024670103670    3.32788886079722   -6.03804856490983
H         8.99256425443699    2.73146967746700   -6.42607424870569
C         7.24997913381503    2.76057293012794   -5.21230538654988
H         7.33223964288023    1.71958976481986   -4.94156448425728
C         6.18233916993353    3.52270097718588   -4.69056373268564
C         4.40979798858624    4.34667626083265    1.08645099493981
C         4.64653864604634    3.30803430735861    1.97286239039510
H         4.75661613033954    2.29978188156257    1.59748782143009
C         4.74686723723203    3.57992508748378    3.32708482826717
H         4.92625592004949    2.76792657584975    4.01470856464127
C         4.62092960615472    4.87756177890838    3.79405344311200
H         4.69780382219404    5.08444573747121    4.85083128279473
C         4.40603614352386    5.91372189915256    2.89973921561854
H         4.31837467086137    6.92927152922199    3.25609248171770
C         4.29736402984096    5.65404954423919    1.54499803438857
H         4.13373938273606    6.45124070439036    0.83554484814522
C         1.00035152198984    2.00280351705091    2.04599629269218
C         1.22993766213658    3.27786977567061    1.50308060211937
H         1.71436771941661    4.03973459650282    2.10488528801770
C         0.78498833835776    3.59875231079860    0.18935714535447
C         0.05851182949155    2.63912227224177   -0.54291569829000
H        -0.33762419233520    2.89665267599268   -1.51917653855336
C        -0.23950918346120    1.36444340137045    0.01226354427011
C         0.25572520880512    1.05181240571050    1.28641779934162
H         0.02188670054852    0.09128713952556    1.73489577717820
C         1.48725463957689    1.64304418880066    3.41503246960381
H         1.87801113879446    2.51631554814565    3.93262358496207
H         2.29016752035398    0.90693736095882    3.32495640273465
H         0.68548196932507    1.19923778796139    4.00376068201558
C         0.96913485115655    4.98196932748546   -0.35973012520006
H         0.05527129938644    5.55926991286932   -0.20599978501214
H         1.17314219102253    4.94329704539801   -1.42825966535409
H         1.78767563177909    5.49515655461406    0.14005737813455
C        -1.04115559732001    0.37865570873641   -0.77618892618212
H        -1.40900387411501   -0.42627986065328   -0.14403375135720
H        -0.40128641297338   -0.05539377911309   -1.54995973836772
H        -1.88002819373897    0.86869326452177   -1.26756409553734
Cl        3.50807331534803    0.20989291866505    1.04389437622017
Cl        2.17102005754461    0.38821248347349   -1.90910633646220
O         5.19899979343754    2.09105884637078   -1.20688869009119
O         3.31348291116271    3.30726964246486   -2.36044888802065
O         4.27650346916580    4.13481474447355   -0.26630848854233
P         3.76820527065361    2.76040666912647   -0.92683119656670
Ru        2.02559676125370    1.71974411021931    0.03299180664489

