62
CSD_code = VAJDIV | q = 0 | S = 0 | Stoichiometry = C32H23Cl2O3PRu | MND = 9
C         0.44769304959725    4.28544375253222    4.45331757909677
C         1.47117555848890    3.39687391051286    4.70884462832771
C         2.81159281187820    3.80110705427702    4.78432114295076
H         3.56038650741467    3.05082244059855    4.98910067190267
C         3.12567635142163    5.11657594459237    4.58665185429809
H         4.15106696899868    5.44832089137967    4.65751200224863
C         2.12760312866877    6.05816948971112    4.25580727167065
C         2.44805576422087    7.40412628602407    3.97790259551502
H         3.48009383579634    7.71402480025244    4.05771693807794
C         1.48057200617478    8.29458655840039    3.60662963740693
H         1.73530795952708    9.32230088995531    3.39467279316408
C         0.14795103588580    7.87313226444129    3.48410534825688
H        -0.60478386330138    8.57907260833475    3.16608790839688
C        -0.20005279615321    6.58026460545709    3.76051662636241
H        -1.22537889989405    6.25981088684085    3.65517858088855
C         0.77065485160436    5.64216199665573    4.17415026438836
C        -0.93833179688180    3.77470127574149    4.44087031621232
C        -1.25013269667786    2.69921575645376    3.63737206639645
C        -2.55033613507943    2.18006950485750    3.56641988026737
H        -2.72784537527069    1.34015288203119    2.91356622921097
C        -3.54657373636361    2.74182289234074    4.31156103479695
H        -4.55409695603279    2.35742143246430    4.25564077618399
C        -3.27319905034195    3.81201572515582    5.18910580159666
C        -4.28142848561817    4.37146766664747    6.00192511900833
H        -5.28565641661314    3.98193918005694    5.91770552200135
C        -3.99489872781705    5.37388528533626    6.88489329822636
H        -4.77183074982260    5.79593473228929    7.50472835380812
C        -2.68035202952782    5.84840432386460    7.00425629471655
H        -2.45851770818252    6.62076629189603    7.72555912207552
C        -1.68257228472106    5.33746603204974    6.22164612643611
H        -0.67184860256258    5.69907885765806    6.33117140905332
C        -1.95136464940468    4.32493547527900    5.27568366211221
C         0.63186024597527   -1.18307083066013    4.45351346739731
C        -0.13505387385143   -2.32203652809365    4.26789069126817
H        -1.08864393725088   -2.24380165334412    3.76982250357115
C         0.34933233602227   -3.54019008407722    4.71006275048485
H        -0.23976853828987   -4.43247992246504    4.56145038138059
C         1.58700426350827   -3.61753900856452    5.32619207174454
H         1.96543707421622   -4.57251550294648    5.65830811579208
C         2.34125001469359   -2.47157360293397    5.50917647152927
H         3.31037820603260   -2.52526938620651    5.98017301641328
C         1.86312153654440   -1.24590671976261    5.08003461114733
H         2.44015985856336   -0.34040854268623    5.20506707479180
C         3.50631957964617    1.36317175873025   -0.13608468075346
H         4.02445217287447    0.58531121746501   -0.68531589050587
C         2.10265232941654    1.51955638707967   -0.29237839299275
H         1.56253674312601    0.85918838650649   -0.96089933404098
C         1.43672179270013    2.56638912327321    0.35387025268522
H         0.38016735568012    2.73211050157356    0.18175090841726
C         2.15811146857456    3.44889520220802    1.20121866990110
H         1.65135604481671    4.29234341070210    1.65796619857701
C         3.54010391716789    3.28682550840402    1.37009388146053
H         4.10248616052697    3.99291725845889    1.96983685877476
C         4.21661251531000    2.24016910607877    0.68770023213330
H         5.29352263887820    2.14953973347872    0.78257874206050
Cl        2.16455163298792   -0.99348140998221    1.77964349880635
Cl        4.08191191518997    0.88340574694826    3.62879272321060
O         1.15962843902227    2.05371648184266    4.88011821547799
O        -0.27396190077675    2.13149850758465    2.81952407975182
O         0.10149623844086    0.02542558402245    4.01620753925481
P         0.91372894930846    1.26812677724559    3.48535155107458
Ru        2.53939595155736    1.31951080601776    1.92491293611375

