80
CSD_code = VAJFET | q = 0 | S = 0 | Stoichiometry = C31H40I2N2P2Si2Zn | MND = 4
C        -3.80841823948349    4.25641142469267    4.27783637847411
H        -4.72426297259114    4.84998327362989    4.17452738181862
H        -2.95168041516369    4.92982824973557    4.16297376619934
C        -3.82453117442327    4.08524058885738    1.43662351512178
C        -2.71926403919127    4.90442773805688    1.22828244913852
H        -1.90762043961863    4.91092440100931    1.94156351831172
C        -2.64253250842103    5.70251881868572    0.10214580311780
H        -1.78033889230598    6.33436661760210   -0.04679908649554
C        -3.66810460009062    5.68224468740049   -0.82878791263916
H        -3.61087993235567    6.30181433186290   -1.71106245328386
C        -4.76356435039704    4.85690767185008   -0.63329371144714
H        -5.55847459798755    4.82914880878521   -1.36412271420901
C        -4.84321013646946    4.05623996819494    0.49215463923327
H        -5.69248708206470    3.40119949599209    0.62402415572645
C        -5.38525870689533    2.18789682355701    3.01992595389464
C        -5.40747320288997    0.81009921955193    3.18193597749417
H        -4.47052448466854    0.27964071974738    3.26919581136444
C        -6.61319285191407    0.13341372220377    3.22200837635920
H        -6.62570794972108   -0.93893305227481    3.34618591889550
C        -7.80089121282003    0.83341637642072    3.09420480869446
H        -8.74332723465863    0.30708934657419    3.11376523712875
C        -7.78388299571979    2.21102062454956    2.94260541393089
H        -8.71132759036238    2.75626492506078    2.84673454539995
C        -6.58094703173748    2.89089577098150    2.91083176159551
H        -6.56981608247378    3.96685866326044    2.79608764176358
C        -5.37975416461918    2.71211916604874    6.15041875278629
C        -5.38610777767872    1.36157317667536    6.46859489895243
H        -4.44289686014495    0.84622952156953    6.57591659246211
C        -6.58421437256861    0.69496015755988    6.65117815802625
H        -6.58419957432704   -0.35547929135046    6.90036942910961
C        -7.78047504730729    1.37981481586398    6.52129375105437
H        -8.71729702263503    0.86522507531920    6.67343605732168
C        -7.77921704834703    2.72665712687916    6.19414562692258
H        -8.71326163167651    3.25887880066112    6.08969634759095
C        -6.58376400974087    3.39348901590220    6.00290013683291
H        -6.58525168137713    4.44410261648880    5.74379423392056
C        -3.84768613821874    5.05186814825445    7.00599517899535
C        -2.74717795899099    5.90019205902901    6.93296574508035
H        -1.92686490136769    5.66702211503271    6.26926823035487
C        -2.68663089081138    7.03600863465638    7.71859264017227
H        -1.82818595179832    7.68667270300072    7.65154275288692
C        -3.72384626929503    7.32857775551790    8.58896711204949
H        -3.67952237749577    8.21330286361466    9.20609326094557
C        -4.81443366550781    6.47863136744257    8.67638338336103
H        -5.61817508460665    6.69741032509662    9.36407246461174
C        -4.87800500672027    5.34059133834579    7.89220390973105
H        -5.72352052690256    4.67382435445142    7.98329339833422
C        -3.27857227199510    2.69509680217136    9.11314781382118
H        -4.30975773554563    2.58968103782466    8.78658100834331
H        -3.11316891330985    3.73561827293947    9.37079185298399
H        -3.15788578901232    2.11205974361944   10.01918854266896
C        -0.34219903791490    2.84216518816378    8.18847490545084
H        -0.34774330152530    3.92706507905303    8.10840229490563
H         0.43356415424847    2.46745795148032    7.52782051928380
H        -0.05035428019329    2.58750352959299    9.20233879926324
C        -2.06825735003689    0.17655598099846    7.82854521243452
H        -2.77832357681985   -0.19165015767233    8.56419871219420
H        -1.08835242247245   -0.20022717348654    8.10169341838051
H        -2.31587569373575   -0.27089020724100    6.87090397064880
C        -2.08775006010245   -0.79387300774074    2.34264886424742
H        -2.80857087664158   -1.38598542536987    1.78526915206768
H        -2.32727345034045   -0.88117894523241    3.39793856607292
H        -1.11338454372393   -1.25122370213800    2.20747545231212
C        -0.34562383516270    1.57686741864592    1.08985103182837
H         0.42912911715599    1.44636726511249    1.83910058871831
H        -0.34558961321789    2.62390547682079    0.79434469984072
H        -0.05642966611966    0.98955589560363    0.22417397846862
C        -3.28085626554244    1.13621127135522    0.26577797082435
H        -4.31286749622747    1.15903057827843    0.60551809978199
H        -3.16577627877333    0.27486364820685   -0.38250395743415
H        -3.10605071316600    2.02210188161793   -0.33516595837007
N        -2.51806259653461    2.08645097868394    3.04120946556000
N        -2.51363311108662    2.64009450264628    6.18172581322621
Si       -2.05374510916549    1.01276971120873    1.71636545325307
Si       -2.04657149733700    2.08849140278305    7.79427968000084
P        -3.77374871560572    3.02666156735257    2.92060120347415
P        -3.77685716386730    3.55351004341851    5.96960512441941
Zn       -1.25849398320862    2.40334468096864    4.60351391577109
I        -0.05854695319925    4.61567457195694    4.22334931606980
I         0.25823571645430    0.41673307595526    4.95156525240376

