53
CSD_code = VAJHUK | q = 0 | S = 0 | Stoichiometry = C24H24Cl2N2Zn | MND = 4
Zn       13.83753108473260    3.18695126751541    8.51184134056375
Cl       13.14052848064760    4.85291522139162    9.74898332722645
Cl       14.05401038220207    1.12957081206431    9.39065079709630
N        12.87246715712499    2.69937552641864    6.54090262502605
N        15.76752321997766    3.25656668908180    7.36438683505156
C        12.08459973525907    3.77045009348937    5.90322838455898
H        12.09309689622037    3.64762153362531    4.80727199932106
H        11.04951368356313    3.67375146731275    6.24856696170183
C        12.52082951695431    5.10447267497486    6.25117600778307
C        12.74233387570956    6.25777390599481    6.52420204992987
C        13.13072446119804    7.55030924450563    6.91481854885010
H        12.40791483849253    8.34448871920938    6.79881767705360
C        14.34631293400872    7.76376565397337    7.44537611967866
H        14.66824543671672    8.73713117569805    7.78258778472781
C        15.22758975231006    6.68000982600219    7.58075633998544
C        15.85079591441867    5.65090758860274    7.63774078476391
C        16.61296254156691    4.42477982767794    7.67214766941146
H        17.02623023686295    4.28934062205145    8.67671273003264
H        17.44505396699834    4.49420033938204    6.95286598495201
C        14.07850451035334    2.38981637833001    5.76620228729331
H        13.84789182810731    2.37959071307423    4.68990321538901
H        14.39941363984430    1.38564458329503    6.04914380983545
C        15.22893445301550    3.36402522308421    6.00573578645519
H        16.01473457085762    3.17968698780076    5.25985153985653
H        14.86216702680222    4.38629819816866    5.87937400400906
C        12.04745528277390    1.47089279946674    6.61996959104020
H        12.60340461246664    0.74825547674904    7.22396105220545
H        11.91073833889061    1.06154423720788    5.60800576598034
C        10.69678427698701    1.68546699800752    7.24925729943913
C         9.53962546817010    1.47859035506742    6.50589420306288
H         9.61374665823588    1.16846076234595    5.47207138824240
C         8.29223066603388    1.66072483739769    7.07686272255874
H         7.40280841052274    1.49215184044308    6.48762288811307
C         8.18731476223133    2.06000728961163    8.39788422238230
H         7.21446030733812    2.20493959774308    8.84333533583910
C         9.33417008796318    2.26714721436444    9.14634256945977
H         9.26111347835337    2.57429264307725   10.17819450919015
C        10.58027930259768    2.07569944675016    8.57817384785194
H        11.46790945472153    2.22391933606990    9.17713038377137
C        16.55629984726036    2.02237796137032    7.57395328200316
H        15.89411584911875    1.16682327095373    7.44196517431366
H        16.86586881372659    2.01784041211493    8.62171627087842
C        17.76450982887026    1.88125332768324    6.68457208776952
C        19.00282215178909    2.37251840501466    7.08497039805343
H        19.10763973628169    2.83441841999489    8.05636252837333
C        20.10961630947072    2.25876019193526    6.26247860398465
H        21.06352591446545    2.64433939949416    6.59043704856187
C        19.99604714021109    1.64735262677042    5.02564734839558
H        20.85896266042108    1.55854004044867    4.38295449751241
C        18.77419196914475    1.13557117384532    4.62439453702638
H        18.68220296837819    0.64099875302186    3.66866524063035
C        17.66850230403390    1.24922147536258    5.44921466547050
H        16.72534325559900    0.82414743496504    5.13551792733780

