51
CSD_code = VAJKEZ | q = 0 | S = 0 | Stoichiometry = C24H18HgN2O6 | MND = 6
Hg       10.28583627746490    3.27515485883322    6.27006774740346
O        10.86154599808677    5.28206625279796    6.46835565874525
O         8.82309402594549    4.71681058756765    7.01450386353911
O         7.22315508435824    6.47246358799874    8.04225135276431
O        10.85893091628893    2.08854479909684    7.90149548357011
O        12.12492068968475    2.12534960282162    6.12153971167647
O        14.38654420373510    0.86417147047205    6.11402597502600
N         8.49287807838073    1.92897243780552    5.61522139503555
N        10.09154647345999    3.30576085225855    3.94817994418325
C         7.64337673775828    1.44656700822340    6.50801039961250
H         8.00260438235141    1.41748170711716    7.52916778085392
C         6.37457918668237    0.99986461812395    6.16803200085528
H         5.71119725439266    0.61308283509470    6.92475663445058
C         5.98239682087594    1.07750335914736    4.84175097129507
H         4.99681238036561    0.75747355529686    4.53759704231903
C         6.87315732851205    1.57713303126440    3.90610862487243
H         6.58177498588234    1.66613253870293    2.87172394704179
C         8.13466469297387    1.99100623520177    4.32889504368947
C         9.14621983572971    2.53561623383844    3.40045976350143
C         9.13754659044403    2.25962341796252    2.03458896411149
H         8.39138963194636    1.60779313926581    1.60908307888776
C        10.12211062188254    2.81147515010961    1.23181971400159
H        10.13745657803424    2.60678371997893    0.17152860832073
C        11.08374790517864    3.62359897884319    1.81053178436582
H        11.86362057486817    4.07477938763271    1.21846280833894
C        11.02974236534149    3.83657004268296    3.18041330409833
H        11.75793896954799    4.45568098964930    3.68940604678429
C         9.74018232727077    5.59400864648987    6.94203792102460
C         9.48685838247618    6.97197411698777    7.39752892225888
C         8.23929198870863    7.33858683490276    7.93186145975085
C         8.05046818533395    8.65400651561449    8.36208450326884
H         7.08881727825873    8.92149144150759    8.77147779005318
C         9.07082156991649    9.57529849909908    8.26701725568998
H         8.90779436580161   10.58704544574933    8.60869944868139
C        10.30526237231359    9.21270177593637    7.74078448134527
H        11.10066024358794    9.93906307031283    7.67320304649335
C        10.50681075525787    7.91956001275384    7.31118383373393
H        11.45437406778164    7.60373049418524    6.90219774463348
C        11.91447771952501    1.74057013161568    7.31483643463825
C        12.89641892688285    0.88501644380970    8.00314084096408
C        14.08799502086289    0.49580067072672    7.36671523762576
C        14.99424113769073   -0.30572000603131    8.06494735548574
H        15.90512216147310   -0.59627631999490    7.56519772382595
C        14.72566157094291   -0.70579873332949    9.35590149820705
H        15.43966000265613   -1.32335560271037    9.88116281858706
C        13.54842783092127   -0.31973441118123    9.98616694622993
H        13.34679386795229   -0.63439259037673   10.99861460968206
C        12.64445845762296    0.47016596799776    9.31092278638182
H        11.72397723308614    0.79273646524395    9.77299654686633
H        13.64479300255872    1.43506337766999    5.79845817789492
H         7.55304294100106    5.60149735533554    7.71258496739101

