62
CSD_code = VAJMEA | q = 0 | S = 0 | Stoichiometry = C35H11CuF10N4S | MND = 4
C         6.29378050368810    1.17734048272658   10.45485616715065
C         7.49632193402847    0.48266563659914   10.69105656617969
H         7.63903747298163   -0.28193873827551   11.42844886786691
C         8.41858740419904    0.97270564652894    9.80123456549239
H         9.43891664150028    0.66145151217263    9.69220583184936
C         7.78126404754870    1.97739780567791    9.02504391945136
C         7.39951759560665    3.67816235685227    7.34534970607206
C         7.79292998648821    4.61949615541899    6.35264733354736
H         8.78862641005229    4.73105400731112    5.97048670876214
C         6.69361554730405    5.34364247174194    6.01717901931133
H         6.62927354121369    6.15026815077957    5.31471941753485
C         5.60822000063406    4.85345208703261    6.79800727433059
C         4.29870467312547    5.32581974964743    6.74388037986236
C         3.28949244211189    4.85018783667417    7.57795451607489
C         1.91856994930027    5.23098470056750    7.51521710870494
H         1.50388907144942    5.91599298491838    6.80354307778298
C         1.26385906138189    4.54992965583779    8.49113902541580
H         0.21642534752128    4.58321286269312    8.71819350215240
C         2.22162859637176    3.74178626528476    9.16643911079985
C         1.94172630390453    2.86878734681981   10.21981356374823
C         2.94396919278406    2.04804226675421   10.73796064405374
C         2.93414854474991    1.12301969237245   11.81599991634779
H         2.08330140497418    0.89689202425814   12.42829085758033
C         4.19583729574257    0.59526031107752   11.92659537061459
H         4.54160292721714   -0.13418138627868   12.63167598967940
C         4.97953278173663    1.20101721483197   10.92494519671948
C         8.25132534644301    2.76893310883021    7.97676645450228
C         9.64868707215198    2.64042006675121    7.53631201992662
C         9.96644406050421    2.29123969286480    6.22295113703385
C        11.28284579205224    2.14983677209856    5.79981574550605
C        12.32443712213485    2.35580518884833    6.70015330052004
C        12.03410634001328    2.70267752585076    8.01654395566362
C        10.71042706661915    2.84064894305984    8.41892605044268
C         0.58602831174212    2.80477089658208   10.78696389093436
C        -0.02808329178579    3.92841800376392   11.34135594805173
C        -1.30306507673785    3.86980846593667   11.89223339942532
C        -1.99759046063475    2.66339063614816   11.90208735390136
C        -1.40577706079601    1.52713435521441   11.35779094975856
C        -0.13054731917194    1.60779649645427   10.81007056498253
C         3.97180290147265    6.36391565658444    5.75780231892324
C         4.20154377391775    6.23462880362433    4.35900824804449
H         4.61924890384737    5.35107336585508    3.91117716287414
C         3.80752447243365    7.32635438972193    3.66112524349098
H         3.85358232249033    7.49280495809548    2.60354449029019
C         3.40866192314686    7.56834936487087    6.06594422734331
H         3.14939826741216    7.94180022836428    7.03666452031479
N         6.49293358758137    2.07396297083752    9.44529753061176
N         6.06240181712522    3.85213035607955    7.61421187927426
N         3.45055953912073    3.92832514141373    8.57793399017817
N         4.20064348276949    2.07513131035077   10.22345198038248
Cu        5.03567040665696    3.03134477056095    8.91830591245920
F         8.98433324906052    2.06018176726041    5.34622047500858
F        11.55153387805974    1.81108347624207    4.53710207472229
F        10.45989136562632    3.20281573358955    9.68067540574993
F        13.59014959623285    2.22197940788732    6.30432652249193
F        13.02649125429526    2.90757108409100    8.88504548462441
F         0.62885566816793    5.09202988348930   11.37037361475857
F        -1.86047725427058    4.96292564624863   12.41728358891669
F        -3.22011662359225    2.59687052027320   12.42888995300674
F        -2.06635265814192    0.36754681816013   11.35802715779171
F         0.40348230084501    0.50918724241912   10.26805089195468
S         3.16092124559150    8.55045785155479    4.68218291905151

