69
CSD_code = VAJNEC | q = 0 | S = 0 | Stoichiometry = C20H40O4P2PtSi2 | MND = 4
Pt        5.17534068427310    0.48604629591243    2.89491433043880
Si        5.62798597628475    1.19283430448985    0.71456438179303
C         7.09470886694256    2.43668396645178    0.76232120784809
C         7.52524246467850    3.14571740061337   -0.35020536095320
H         7.00070723053125    3.03054977393428   -1.28986564763824
C         8.62165579420969    3.98958645437543   -0.28166148772849
H         8.94367259889987    4.53720292957074   -1.15760845802590
C         9.30916798033763    4.12328519051369    0.91195366459496
H        10.17015169937238    4.77582341451943    0.97259092590620
C         8.89496743671640    3.40992329122347    2.02484996869766
H         9.44742890966018    3.50239173120395    2.95105874449033
C         7.79110196851784    2.57100705679958    1.96758195526531
Si        7.23203333650918    1.44989205517502    3.42017838916976
O         6.01656432197875    0.10817602098079   -0.49583094958518
C         7.18667326242842   -0.64188652653248   -0.54073594092232
H         8.06875356526754    0.00234930501590   -0.48184978177198
H         7.20290822801006   -1.19107562911075   -1.48416993115764
H         7.22510124344952   -1.35238465212816    0.29133317234290
O         4.23084880336102    1.84828448851899    0.12968260282604
C         4.00595764780548    2.25894577999540   -1.18691465063533
H         4.40425642665669    3.26442664194962   -1.34599524571299
H         2.92734448882285    2.27247855571922   -1.35964704524346
H         4.47642522592221    1.57142953577992   -1.89072435305371
O         8.54391503164643    0.46370798405001    3.72912124633878
C         9.19158805000868   -0.30826642799192    2.76963774463156
H         8.52912831362281   -1.09425963459202    2.39301995254757
H        10.06655327238216   -0.76570505051650    3.23506859354973
H         9.50960499827055    0.30607558866123    1.92256473969238
O         7.03749755073568    2.19053090545020    4.88507059064963
C         8.05511815219110    2.79032300600750    5.63127250175808
H         8.95454208716760    2.17334773718675    5.62333290379268
H         7.70399745331552    2.90301129047455    6.66011936019337
H         8.29380021140582    3.77848997562068    5.23009139283733
C         3.13152298970740   -1.02030622922296    5.26533992111885
H         3.57223464151565   -2.01134120574881    5.40358964768506
H         2.54667621318121   -0.79217092192378    6.16227642737926
C         2.24525139935935   -1.01626494651581    4.02371253282466
H         1.51128419909050   -0.20995805095863    4.10057932901673
H         1.69289837559406   -1.95723046629319    3.93355742730153
P         3.19500966161967   -0.70422743404968    2.45015790773609
C         1.81522840245646   -0.47070286909639    1.24740889408163
H         2.25090497715387   -0.62759581162867    0.25802076777369
H         1.04099086542748   -1.22659017330443    1.41418819106730
C         1.24506105519618    0.93951993070298    1.31897553174379
H         0.75578681644519    1.12378061457987    2.27374252226859
H         0.51139338021659    1.09638505123540    0.53031468011150
H         2.05527197522223    1.65550790402736    1.19308565722391
C         3.77679493302913   -2.38377646793398    1.95145958916004
H         3.00138653890127   -3.13883413275861    2.11416025432969
H         3.97409326918624   -2.31586983786788    0.87795431419478
C         5.07103473586394   -2.74435220264739    2.67504629295972
H         5.75068579521433   -1.87731429722760    2.65294018940137
H         5.56470378576913   -3.58865828217747    2.19665617659052
H         4.88098297956455   -3.00662437162514    3.71335052485190
C         3.83825114837817    1.78903223206633    5.62720856095448
H         3.10452971927813    1.67135310059635    6.43130268394560
H         4.67952365942451    2.37811363700459    5.99807538024685
C         3.24074638282354    2.49337342931680    4.41212165592936
H         3.96295888832290    2.46249809978425    3.58231461669655
H         3.02087813205167    3.53528498893190    4.63801283391099
H         2.31801816265247    2.01443036078149    4.09160279287860
C         5.52527218363451   -0.27999497621596    6.64280888841405
H         6.10178598459051    0.60627756176302    6.91143344316998
H         4.84675480229042   -0.52387892670522    7.46626576655814
C         6.48210547552041   -1.42857525649370    6.34869445309773
H         5.94222377682107   -2.33410409345755    6.07658939137294
H         7.09874058396384   -1.64949065796294    7.21796402784699
H         7.13286477195288   -1.14923186061523    5.52206788182973
P         4.56080605725035    0.16929380223510    5.13600132741144

