53
CSD_code = VAJPEB | q = 0 | S = 0 | Stoichiometry = C19H24CrNO5PSi2 | MND = 6
Cr        5.11061314911082    6.69513109755114    5.08254792852205
P         6.06149936132595    8.09721148082934    3.42687717726844
N         5.68145714946819    7.92349952701972    1.71548061820055
Si        5.19589828610287   10.97261997323313    2.98470429003188
Si        8.43150951363812   10.09198033252804    3.24704284426429
O         4.04835469348306    4.85695146123295    7.19736134815145
O         2.34530765915951    6.56849059005702    3.89246778415414
O         4.43739272822640    8.97634354177340    6.93596048104878
O         7.65539775064954    6.30125693752014    6.63726361200690
O         5.87052558397348    4.31000502182007    3.40249482134442
C         4.43887092856264    5.56577726793792    6.37852014723302
C         3.41298659254734    6.69373980652186    4.29139134019181
C         4.68878247527589    8.14552970513353    6.18078289551729
C         6.72875898951762    6.52315167322095    5.99011444901380
C         5.57265278744004    5.23546382774952    4.01782303914190
C         6.58363061110059    9.83141483280065    3.68196316738107
H         6.52186508148650    9.92414933592928    4.77280354341923
C         5.23626764575539   12.61220198242422    3.95505001127243
H         6.17478718387630   13.13816595403970    3.82320037605497
H         5.09496999459080   12.45010058821218    5.01864971077945
H         4.44237881122251   13.26881436409261    3.61667761563752
C         5.46010115322948   11.28302771654524    1.12422652481692
H         5.43306058586193   10.34958912728546    0.57094506759141
H         6.41058880547784   11.76773602620758    0.92588284202531
H         4.67599571812522   11.92143214357959    0.73008434896357
C         3.53081386511515   10.09749697505828    3.27770786603281
H         3.39432520365993    9.84598104073251    4.32710771135837
H         3.48478495616594    9.17355611539582    2.70665818790180
H         2.68859295560694   10.71324479377695    2.97633848508191
C         8.94597492377967   11.85778123575031    3.74537033281205
H         8.50994399138366   12.60066386894039    3.08587448351721
H        10.02420647523279   11.96539258825496    3.69094142075419
H         8.64333229090518   12.09637420490855    4.75939068443810
C         9.38226569178079    8.82724163255360    4.31827483585555
H         8.77783532954994    7.93937703537039    4.49332001163522
H         9.62816743766618    9.24315981450366    5.29087830329411
H        10.31231953151462    8.51118114090785    3.85546051392679
C         8.82227564188729    9.85066090119938    1.39085278082948
H         7.92802013990175    9.67587804755053    0.80367475960349
H         9.49009435785168    9.00954369552926    1.23012566840954
H         9.31000195600886   10.73272264761289    0.98792089403713
C         6.83892390852920    7.43189582800796    1.97819658936054
C         7.86753582595388    6.67895587046022    1.34200504670943
C         8.76780506716275    5.94544022740102    2.11808831482760
H         8.67437653796624    5.96139466356623    3.19492221587748
C         9.74545890392353    5.18718286662089    1.50553296668905
H        10.43486224002418    4.61151882787541    2.10440056237353
C         9.84342587721105    5.16719212708594    0.12211239984196
H        10.61406862444855    4.57915064973823   -0.35340234394363
C         8.95235783271341    5.89464928167768   -0.65371135474378
H         9.02993178135760    5.86967947808743   -1.73029653569664
C         7.96127227120819    6.64405274840036   -0.05270531097230
H         7.25487314228312    7.20944737776776   -0.64095547384018

