22
CSD_code = VAJRUU | q = 0 | S = 0 | Stoichiometry = C8H11AuN2 | MND = 2
Au        1.53914026691950    3.89531336827084    0.55465127343674
C         1.84959250963308    5.30190608584742   -0.67709966229298
C         2.32835369370264    6.99872963311862   -2.52832529815235
H         3.36224282075513    7.35219712732767   -2.41923208684186
C         1.36358122636647    8.18167767552080   -2.39027715723383
H         1.49846834446959    8.65658098209903   -1.41619625434916
H         0.33702703267039    7.81229895096118   -2.44806772226553
C         1.61686684606320    9.18515990623100   -3.51132657490043
H         2.62852549913008    9.58704878750542   -3.41838252532766
H         0.91725822159326   10.01672155146274   -3.41653875043266
C         1.45628048677661    8.51920647265039   -4.87489537625990
H         0.42651759498861    8.17483616115095   -4.99224643721821
H         1.65858461019558    9.24314127132608   -5.66545463976958
C         2.40667539022709    7.33247072476436   -5.00576123817411
H         3.43962245127462    7.68454646496815   -4.95427314258085
H         2.26734614514957    6.84676397030422   -5.97252980049339
C         2.15836060657230    6.31969886510177   -3.89193685124624
H         1.14238432671896    5.92541761557521   -3.96891572226292
H         2.85392308823824    5.48211739292953   -3.97652683599899
C         1.24581740577625    2.42256665021262    1.75366124943418
N         2.09819217638830    6.07326719852737   -1.50622997959484
N         1.07033925639078    1.54063314414691    2.47360353252485

