49
CSD_code = VAJTAB | q = 0 | S = 0 | Stoichiometry = C12H22CdN8O6 | MND = 8
Cd       -1.01986899296844    4.20652452685606    2.40848511640281
N        -0.37225299960212    2.99390855354325    0.55765485895938
N         1.60025734802792    1.24006960962150    1.62151136660184
N         0.03773949036832    1.76626286612952    3.22508238629804
N         0.84405148871617    5.77070506782894    2.72280054977001
O         0.64535989572439    4.84233640822737    3.53235965444767
O         0.19917513428333    5.76108410299002    1.66244982399821
O         1.66285098918693    6.61361968011790    2.94786152203811
C         0.20157647766121    1.07913376520763    1.94269270737077
C        -0.80105173731209    1.64753505791689    0.93582215753609
C         0.98181451951285    2.97538934070688    0.01403714166259
C         1.93197248884155    2.57632664342085    1.13162941246571
C         2.23300848495833    0.97096220169762    2.90985976745942
C         1.25928784392991    1.51957852052018    3.98158983737128
H        -1.02250898985594    3.36583382511598   -0.13376105349466
H         0.02782001422660   -0.01087337954799    2.04257290272512
H        -0.84401752325855    0.98196568959931    0.04756540234844
H         1.06547222984552    2.25710905035893   -0.81555975435828
H         1.23348996802597    3.97509422702784   -0.34448311597720
H         1.86959140080103    3.32459411083506    1.93325364448484
H         2.95859917726353    2.53930995575114    0.76010852023219
H         2.34529341155359   -0.11139442579701    3.01117903393320
H         3.21724616751724    1.43090601717194    2.95481253650860
H         1.61699618168332    2.45460722387980    4.41856164856481
H         1.10119858561008    0.78711700378436    4.78391672670690
N        -1.66748427333722    2.99389698355240    4.25930351295946
N        -2.07747007616290    1.76625594594963    1.59186299504473
O        -2.68509206383823    4.84235153913885    1.28460576269220
O        -2.23890495850209    5.76108827346905    3.15451700444446
C        -1.23867689477615    1.64752911017018    3.88112436140250
C        -3.02155464563496    2.97536689274679    4.80291317561284
H        -1.01723351575087    3.36581711858448    4.95072710073358
C        -2.24130197320236    1.07912460647527    2.87425182946847
C        -3.29901575763976    1.51956214469148    0.83535408809977
N        -2.88364535917793    5.77081964329448    2.09408779770650
H        -1.19570505245629    0.98195610391097    4.76937789068231
C        -3.97170257884444    2.57631023251449    3.68531009818835
H        -3.10521211418497    2.25707687006638    5.63250145042322
H        -3.27323592244975    3.97506690074588    5.16144266619464
N        -3.63998416168060    1.24005284330558    3.19543220429354
H        -2.06753986314688   -0.01088143718209    2.77437005608988
C        -4.27273206371162    0.97093861002294    1.90708357897953
H        -3.65673235221286    2.45458754206862    0.39838162596348
H        -3.14092082686608    0.78710094810546    0.03302794306363
O        -3.70243314511638    6.61374375637758    1.86902081677393
H        -3.90930911605778    3.32458027529689    2.88368822285730
H        -4.99833332229152    2.53929492504902    4.05681935500107
H        -4.38500727311856   -0.11141914963076    1.80576424709620
H        -5.25697374457903    1.43087367830824    1.86212942217480

