96
CSD_code = VAJVUY | q = 1 | S = 0 | Stoichiometry = C39H48ClNO3P3Ru(1+) | MND = 9
Ru       -0.47487014663968    0.72035198596931    5.87474457904394
P         1.14201580845086   -0.92995245132611    5.28395364228841
P        -0.54362753865224   -3.00860028030004    3.60375866323244
Cl        1.57736438597988    1.90847731812309    6.06242861213647
P        -2.68382210227093   -1.57469092766424    4.60366393812649
O        -2.15257783075392   -0.76254241228012    5.73494431387981
O        -3.92927048443025   -0.77970902960047    4.02170599785850
O        -3.19558513636373   -2.99743930448106    5.13828292321505
N        -1.70091689357700   -1.94263462304301    3.34861844115331
C        -0.00088120006678   -0.05992598466387    7.86982090050648
H        -0.06116937091810   -1.11377544105164    8.13076741368376
H         0.94373547275005    0.40064122338315    8.16496740608753
C        -1.19460433855893    0.68696838872136    8.01268538188902
C        -2.47251256591845    0.04078937347535    8.46633617131739
H        -2.29909656630399   -0.99874131089817    8.73465492727854
H        -3.24675319903942    0.07429187881198    7.70183200588412
H        -2.83575994507645    0.56817581202478    9.34854853418979
C        -1.12814333747235    2.03008765124078    7.62685027420850
H        -0.18731453629257    2.56867983778708    7.76442349182924
C        -2.33826496686173    2.93059876435791    7.55197148118894
H        -3.25670218387721    2.37716529855641    7.74346142728532
H        -2.26050311476937    3.74139625740903    8.27906587142290
C        -2.33435105724693    3.45192240243503    6.11396125892750
H        -1.56243693810441    4.21281651132809    6.00396512088913
H        -3.29686834106569    3.88433130507858    5.83066707301808
C        -2.01860365103776    2.24147689709148    5.26650933539956
H        -2.85740849285195    1.55105727708490    5.14275329536864
C        -1.01709979977956    2.24290410822505    4.28256662114554
C        -0.20497930147224    3.45869977373864    3.94219047308168
H         0.45358367085815    3.25331987308296    3.10198884238480
H         0.40982095215440    3.79195134096329    4.77799850819881
H        -0.87905284712708    4.26832435694163    3.66544664498479
C        -0.76913259666699    0.98545659038409    3.69499616336993
H        -0.00468187331442    0.92072195961960    2.92790269935890
H        -1.62722793599663    0.34754279181159    3.49540553753107
C        -3.85193466015684   -3.12223859116433    6.39894141102442
H        -3.29051798879664   -2.55492027254521    7.14705219283495
H        -3.79980895726361   -4.18893298686226    6.63599175648925
C        -5.29210495069455   -2.64566144046655    6.35283043825321
H        -5.76145165979980   -2.81183424158410    7.31883767740653
H        -5.84554584156915   -3.19156694312856    5.59276681854492
H        -5.32685191292521   -1.58429490215142    6.11848888118343
C        -4.67217722623665   -1.31702411476216    2.92553444330825
H        -4.60997004440372   -2.40889846303437    2.94995653141548
H        -5.70763754069655   -1.00789071078202    3.09358962825168
C        -4.15502533504944   -0.78475034560907    1.60152968996884
H        -4.77270656842037   -1.16262321391254    0.79167640236668
H        -3.12864415428034   -1.10857173312536    1.45043673120145
H        -4.18970560275847    0.30186806801801    1.59453719852987
C         2.23408996781801   -0.78828319472911    3.82589070874102
C         2.46847609114895    0.43354658267728    3.20500520828232
H         1.99259605602020    1.32666326629689    3.58077918538996
C         3.35587428067537    0.52212513116915    2.14600029155216
H         3.52726623812113    1.47663160642378    1.67179750729442
C         4.03514706471474   -0.60152144407793    1.71030399983161
H         4.72770661647328   -0.53260529017157    0.88582014636868
C         3.84818116410346   -1.81052655330224    2.36021518209064
H         4.40507765788651   -2.68257489388229    2.05306887826605
C         2.95984837752000   -1.90478313024038    3.41398993535786
H         2.85589835997679   -2.84939318140277    3.92659558117558
C         2.45131039340481   -1.28467118775874    6.51460936832842
C         3.62725844131996   -0.53960567343774    6.46541881527153
H         3.74460724101967    0.22966452272284    5.71746361831257
C         4.64186435262901   -0.77146924098374    7.37562941466793
H         5.54496607996098   -0.18302844455276    7.32685290385074
C         4.50113707882640   -1.75207086374978    8.34306125220848
H         5.29311401533516   -1.93350906750419    9.05294900382001
C         3.33755088940660   -2.50064754387473    8.39598883778952
H         3.22087816099506   -3.26798205826391    9.14670101889029
C         2.31704861191839   -2.26919662615819    7.49115028438752
H         1.41631139010338   -2.86280026717690    7.56006235699106
C         0.43692387279948   -2.64712055351732    5.11676526211801
H         1.23208434661714   -3.38942023793530    5.22673003408986
H        -0.28490285014104   -2.76155392708587    5.93628469982721
C         0.46605329089062   -3.02394313076572    2.11686529243500
C         0.42439158351474   -1.94448687560545    1.24521836418207
H        -0.22012569237518   -1.11073511019792    1.47906337151850
C         1.19389188613123   -1.96318889350659    0.09686467876475
H         1.16791283314641   -1.12619795016185   -0.58408839856071
C         1.99335339912115   -3.06020514791290   -0.18279003792634
H         2.59008920139102   -3.07492341928533   -1.08187193503097
C         2.02208730760875   -4.14470986188239    0.68053699216503
H         2.63589016117941   -5.00250979738936    0.45129756995670
C         1.25958915538465   -4.12945163886360    1.83340324651212
H         1.26857655157597   -4.97220262702414    2.51173053312442
C        -1.17837770356976   -4.69387624301127    3.81875099212208
C        -2.00761407855380   -5.11718349107707    2.78389587267112
H        -2.16785232144017   -4.45320356874786    1.94375044686609
C        -2.61454747923037   -6.35642607110966    2.84171259470730
H        -3.25698983432314   -6.68366047118378    2.03847155731735
C        -2.39588883401574   -7.17789953231617    3.93756663273139
H        -2.87033351506921   -8.14583046473980    3.98887325554569
C        -1.57090620343796   -6.75886621304325    4.96778638533946
H        -1.40258097155132   -7.40136550915890    5.81911242186294
C        -0.95933139640275   -5.51698405433214    4.91443145899155
H        -0.31702079323540   -5.20401497938788    5.72477743764145

