65
CSD_code = VAJVOR | q = 0 | S = 0 | Stoichiometry = C33H24FeO4P2Si | MND = 4
Fe        5.75003483283545    7.31606960171082   13.39405659470246
Si        7.50036328780133    6.16517723801772   12.55071488637231
O         8.69124011025227    6.33288623678891   13.58020361070862
C         9.96065472501853    6.14441001198612   13.98550046206099
C        10.99421799407544    5.96477715199719   14.57985944067251
O         7.31723855715647    5.08019102249022   11.43100301928927
C         7.53982238471924    4.10702815000894   10.55694369144659
C         7.88575905462691    3.11029325468468    9.96283924526641
O         6.18830912946011    8.81391003239057   12.68315530890328
C         6.20701971147118   10.01924470051732   12.41256808778965
C         6.20707050721413   11.26504009895202   12.19951443505249
C         4.78346204367401    5.87029990188417   13.10590507462784
O         4.08026988825790    4.99703436451932   12.84948376465215
P         3.93006118758165    8.15251144566762   14.25991167908169
C         3.65201128400327    7.34077254813194   15.90105253637858
C         4.98020430180004    7.20359588647092   16.63983933366047
C         2.37069396056584    7.92482925827601   13.36359622235099
C         2.45507905934368    7.89008566851416   11.97377807159379
C         1.31394862712476    7.72715007080499   11.21104184737696
C         0.08325231343035    7.59321657201439   11.83384496862970
C        -0.00555978316994    7.62750774097461   13.21644967956454
C         1.13230126448499    7.79529587897087   13.98526089359821
C         3.95515048232088    9.92258432985570   14.68317549191923
C         5.11197163659593   10.42451810047258   15.27589042857500
C         5.19997972680273   11.76286031235870   15.60409716673068
C         4.13996976080149   12.61134073657207   15.32782692113232
C         2.99439362748951   12.11941262565618   14.72505105131598
C         2.89733143031215   10.77893473997496   14.39719121173077
P         6.38147354317253    6.80603997258594   15.45121653912788
C         7.74160079005327    7.74508574556863   16.21296722107813
C         8.43593490050411    8.69276331108756   15.47109290010210
C         9.46865106809547    9.40684403709929   16.05185073472565
C         9.80767372664197    9.17803554459141   17.37413446401499
C         9.11008306880555    8.24064091059418   18.12097593860135
C         8.07759664461324    7.52474271848982   17.54711933561627
C         6.76030775394829    5.08437397893000   15.90026670971263
C         5.71458435824740    4.16275912420920   15.87312396844565
C         5.95522116104796    2.82794604799143   16.13227899111680
C         7.24509841410000    2.39862050249412   16.40509764920172
C         8.28907293834967    3.30763983262208   16.41755123565231
C         8.05442855071907    4.64817220145683   16.16491974750748
H         2.93367763654107    7.91766504235775   16.49210143303398
H         3.21860937285539    6.35744914342008   15.68741209360568
H         4.92082592838961    6.43269957629476   17.41373486294135
H         5.23418405794014    8.15273362211267   17.12364724994327
H         3.42742953913597    7.98409260679234   11.50115466003056
H         1.38366751741508    7.69824335852717   10.13434359632381
H        -0.80896044771633    7.45923340066388   11.24126656105473
H        -0.96604256076468    7.52294260046759   13.69899140612534
H         1.05551771251228    7.82728939998423   15.06257064854403
H         5.95183693322436    9.76509470657879   15.46453253155533
H         6.10133450778901   12.14619040072344   16.05776899574701
H         4.21337658410135   13.66047431818799   15.56973728690018
H         2.17426602084983   12.78394891718429   14.49817106023678
H         2.00747169326902   10.39999642472445   13.91438443937249
H         8.17633027805721    8.86662999611897   14.43497000716392
H        10.01146000973380   10.13487218249547   15.46876708735107
H        10.62029109022698    9.72716179770850   17.82487568249554
H         9.37747782689656    8.06219712340395   19.15190368081843
H         7.53763713610083    6.78383725340954   18.12138925685255
H         4.71102467062842    4.49579759566476   15.64142327077000
H         5.13987466085354    2.12015733111136   16.11202963102848
H         7.43444643268864    1.35376829266771   16.59880835266403
H         9.29695743632883    2.97684751202683   16.61526592077173
H         8.88172793858198    5.34303578901157   16.15919972452398

