116
CSD_code = VAJYAI | q = 0 | S = 0 | Stoichiometry = C41H67F4NP2Pd | MND = 4
C        -0.00004622102383   10.95501351676647    5.82860796477425
C        -0.00001541993519   10.76005301383805    4.44839406502807
C         0.00000313458376    9.48274304810093    3.90864961255082
C        -0.00000619712412    8.52451226177116    5.95234359536591
C        -0.00002046364155    9.76508405047370    6.55725650432838
C         3.25087382915147   11.28009305107859    6.29329328393352
H         2.62933307170913   11.08567716970604    5.40548129707990
C         4.65552007469238   11.62409890684681    5.79598852359053
H         4.64922178524039   12.53431072915685    5.19586406905669
H         5.33149184775124   11.77479275925950    6.63874359440157
C         5.17736170483953   10.48117076407808    4.92230276333452
H         4.53474056923532   10.38067937544866    4.04406870371238
H         6.18355668212628   10.72232429839999    4.57210372557968
C         5.19516914656413    9.15944967681037    5.68322251289875
H         5.89604494902350    9.23039163653880    6.51896778677621
H         5.53941949785329    8.35881101002867    5.02616776440245
C         3.80340719339746    8.83700139106977    6.21719588475422
H         3.11332457164952    8.69065745677472    5.38231124938217
H         3.82716819135058    7.91003716686350    6.79360592324177
C         3.31110965383239    9.98127871687979    7.09850476562299
H         4.00521887412692   10.09776198287960    7.93287161352796
H         2.33152619833152    9.73996482892712    7.51064302125416
C         2.81113720815366   14.15680153978787    6.33056085682973
H         3.90366212887117   14.17325296967986    6.24462027203707
C         2.36038137427590   15.42340220580849    7.05451836251663
H         2.82672962546392   15.49020875880007    8.03939771287040
H         1.27384305801879   15.38325585620051    7.19118837817922
C         2.73687989529124   16.66159451472605    6.24393082372140
H         2.41161087361295   17.55908311964470    6.77451105108672
H         3.82437207144634   16.71047677736924    6.14296678700276
C         2.10056646041830   16.61723942856027    4.85964075933978
H         2.39448478572750   17.49663410380000    4.28314363672243
H         1.01447773605068   16.63488395278845    4.96607495343873
C         2.51107184259948   15.34712869198330    4.12393605643104
H         2.01035409218000   15.29727624331328    3.15522700504189
H         3.58921231145537   15.36599531521444    3.94201209514981
C         2.16127836724103   14.11135161582314    4.94532177179660
H         2.47315039354100   13.21689312249958    4.40123551319004
H         1.07032190700635   14.05046183034848    5.09058258986656
C         2.91051227683663   12.77735674265656    8.93133337179873
H         2.50007059443444   13.75290317719138    9.23178643956564
C         2.25009283007061   11.73941444545060    9.84086027224254
H         1.16707884776030   11.73225466346660    9.64625219535722
H         2.63763899316570   10.74157235973103    9.63553156198464
C         2.53156999873977   12.08797173867430   11.29896544148604
H         2.08965085596784   13.05884325535797   11.53468445261807
H         2.07547813310231   11.34391026018309   11.95462400449404
C         4.03842860602574   12.14089773080875   11.54277919354834
H         4.23868764872800   12.41061450484701   12.58168427147122
H         4.46645791541594   11.15088002929928   11.36779359892146
C         4.70570104928542   13.15048116384217   10.61150712167718
H         5.78424495750497   13.15863937218962   10.78443109754679
H         4.32510358456907   14.15106957171562   10.83071208451569
C         4.41946083789435   12.80957258616655    9.14870675089272
H         4.88465189792742   13.55354165077975    8.49743317444035
H         4.85747223446228   11.83625785689518    8.92337926452625
F         0.00000320334830   11.84686620045722    3.63510752271492
F         0.00001882772716    9.29345703816413    2.58186053925486
F        -0.00000185444958    7.38923235982422    6.66327419507466
F        -0.00001614433987    9.90768949725979    7.92779026332215
N         0.00000016311020    8.38999844397358    4.64191047009901
P         2.27355973032869   12.60655711086357    7.19624675376808
Pd        0.00005309448199   12.49721776080908    7.17558808636633
H        -0.00039381922305   13.57608318419455    8.25814734047721
C        -3.25084393004829   11.28005263098267    6.29333884139054
H        -2.62933135026024   11.08556768980144    5.40552032273212
C        -4.65549613118332   11.62404240336058    5.79604033647063
H        -4.64920122609741   12.53423601069978    5.19588903068110
H        -5.33145179321167   11.77476587713896    6.63880276443369
C        -5.17734938801275   10.48108844614476    4.92239375934255
H        -4.53472452339356   10.38056414914362    4.04416634787152
H        -6.18354143521659   10.72223506534253    4.57218056596918
C        -5.19515987202193    9.15939174255369    5.68335587328037
H        -5.89603805842069    9.23035644370200    6.51909735629716
H        -5.53940668623210    8.35873256186338    5.02632410114791
C        -3.80339482855637    8.83696708991466    6.21733641899574
H        -3.11331639662676    8.69060813352188    5.38245125182124
H        -3.82714517630789    7.91001596525300    6.79376811863216
C        -3.31109237299049    9.98127375666375    7.09860671034543
H        -4.00520125719354   10.09780010491154    7.93296823063089
H        -2.33151089117468    9.73997042381383    7.51075560738853
C        -2.81113266330384   14.15676638935382    6.33047263563493
H        -3.90365940089962   14.17328865434993    6.24453025288837
C        -2.36031447807260   15.42337975833701    7.05436545209173
H        -2.82662935699436   15.49024141879054    8.03925703467111
H        -1.27377201950711   15.38320618183449    7.19100412182237
C        -2.73682732309754   16.66153527046422    6.24373033623600
H        -2.41154173967149   17.55905274687125    6.77425251436997
H        -3.82432369991726   16.71040995892875    6.14280592796354
C        -2.10056710473300   16.61709778894895    4.85941771037263
H        -2.39449595729954   17.49646779317358    4.28288918409622
H        -1.01447389798552   16.63472626191478    4.96580624386353
C        -2.51112003775618   15.34695986616807    4.12378669329776
H        -2.01044723399313   15.29705158038212    3.15505720227251
H        -3.58926869208575   15.36582647859620    3.94191096919306
C        -2.16131200792948   14.11122130165135    4.94522178925273
H        -2.47322567892828   13.21674222080129    4.40119421022763
H        -1.07035371991965   14.05030869209959    5.09045337645970
C        -2.91049494221471   12.77742051565813    8.93129920848302
H        -2.50004450078433   13.75297708831354    9.23170461238432
C        -2.25009172418872   11.73951325299935    9.84088163704296
H        -1.16707578204810   11.73233136343567    9.64628519207731
H        -2.63764569317388   10.74166545237819    9.63559554903629
C        -2.53157805654496   12.08812566142794   11.29897313468812
H        -2.08965382177366   13.05900099599215   11.53466654900607
H        -2.07549874739225   11.34408170986496   11.95466028141132
C        -4.03843714878206   12.14106666912438   11.54277934848150
H        -4.23870202468189   12.41082233015994   12.58167342058408
H        -4.46646988173721   11.15104438698937   11.36782849113927
C        -4.70569821160117   13.15061787799812   10.61146519050691
H        -5.78424382318760   13.15877803791100   10.78437822250953
H        -4.32510633674185   14.15121435145600   10.83064260012607
C        -4.41944446161077   12.80965672269418    9.14867885526615
H        -4.88463146138321   13.55360367439408    8.49737765988976
H        -4.85746094253507   11.83633581859730    8.92338846568741
P        -2.27351337851801   12.60656367028021    7.19622397154232

