23
CSD_code = VAJZAK | q = -1 | S = 0 | Stoichiometry = C10H8Cl2NOZn(1-) | MND = 4
Zn        4.92304251635391    2.89590600918902   11.29050356885259
Cl        5.70749025220384    1.33789032005118   12.70329404912270
Cl        3.97777467296913    4.72235460011913   12.18924744331194
O         5.87915901045213    3.11843034699718    9.57962497620472
N         3.47934776007016    1.96911548377099   10.11975988917373
C         3.92249604103997    1.98503583644963    8.85406906911748
C         5.20261849436675    2.60760312354385    8.61876104774971
C         5.65052404813514    2.61697508881334    7.29173717313466
H         6.60549340527026    3.07617818891132    7.08357772342751
C         4.90434115822767    2.05794005510585    6.26308509226582
H         5.30047944715528    2.09411826688715    5.25576058704513
C         3.68368532493284    1.46327944367378    6.48573440023838
H         3.11326145609525    1.03166057314455    5.67528194952463
C         3.17180513693510    1.41772537815537    7.79131443182505
C         1.93497401229245    0.83586669333537    8.13973163566155
H         1.32655789982735    0.38948762244224    7.36327421844488
C         1.51695862780206    0.83909946779995    9.44228645642636
H         0.57208213197784    0.39690658812990    9.72427028222280
C         2.32541787346871    1.42515049895706   10.43496323366510
C         1.92401963971714    1.45907565066777   11.87121923529403
H         1.89218964836301    2.49281246194980   12.21505974340479
H         2.67727606749115    0.94782608063419   12.47043910377680
H         0.95430537485308    0.99166222127120   12.02530469010976

