28
CSD_code = VAKCAN | q = 0 | S = 0 | Stoichiometry = C7H14N4O2Pd | MND = 4
Pd        0.36939472863050    0.81546174940889    7.14147624090973
O         0.37416684558516   -2.86771857536856    8.95505825061113
O        -0.28761327981845    0.85929168032462   11.19052845179895
N         0.47695386019320    0.06648011343381    5.11904452918956
H         0.14369383725467    0.61657178210807    4.32711589035427
H         1.44134085988028   -0.21572539758724    4.92682402971067
N         0.54164924868311   -1.10897059969034    7.55502791164229
N         0.12496225576732    1.34905053103039    9.02857719514577
N        -0.01470579636878    2.91738290775111    6.82808791930502
H         0.80805987806444    3.44828949985356    7.12423875069242
H        -0.31508713875600    3.27742737424794    5.92203345384930
C        -0.34386769775932   -1.15165599947701    5.28745996392433
H        -0.38633738078405   -1.74168114507779    4.36097835438334
H        -1.36204757189690   -0.84324761780250    5.56260210397958
C         0.26913559336090   -1.97683440012390    6.41887611816725
H        -0.40458765392905   -2.78605872417533    6.72781400590167
H         1.20714517315973   -2.43945543061634    6.07241143000161
C         0.56638293872697   -1.67132240619427    8.76986321334031
C         0.97366299956773   -0.74407629396418    9.91467801412103
H         2.01563128710233   -0.45591765846090    9.73760048678119
H         0.91497160179298   -1.31156726680017   10.84387518478424
C         0.17786408645869    0.54755742198272   10.10026122618902
C        -0.52621064705759    2.64092021733567    9.18788955451848
H         0.20252143506102    3.37975228069385    9.55794447614074
H        -1.32501990177504    2.55990220411758    9.93592639097248
C        -1.07898974978117    3.09919526764679    7.83828917130263
H        -1.93295238371317    2.46870301203492    7.55370664117245
H        -1.40931742764912    4.14614547336825    7.89351104111149

