85
CSD_code = VAKDUI | q = 0 | S = 0 | Stoichiometry = C39H40ClIrN2O2 | MND = 4
C        10.68982905566753    4.62342201722236    0.44234546919622
C        14.56259541115411    4.62284961300231    1.02474311958337
C        12.40920160314880    4.62434216862903    2.72892359847276
O        15.70294508995232    4.62308357185617    0.92981457756278
O        12.29308434160880    4.62461488915121    3.88005158704707
Cl       13.10074465744747    4.62153233199902   -1.31611097501708
C         8.63098469854133    5.31467498029219   -0.04190667839909
C         7.29807482949977    5.80811589834196   -0.30947965107839
C         6.67238373341820    7.02277816056033   -0.41959029244038
H         7.20983747820261    7.95307194317989   -0.30317888764024
C         5.28917062367324    7.03885231014563   -0.69245963000607
H         4.80272659868875    7.99941616554475   -0.78111779775090
C         4.54538750250668    5.89564834899216   -0.84679672074102
H         3.48729845071953    5.95949838269541   -1.05423191332993
C         5.15708998986381    4.62389951729554   -0.73157660524242
C         6.52266191470857    4.62376114754636   -0.46681028629559
C        10.31756717593660    7.07431032332112    0.29401377715848
C        10.66307725545971    7.71495387435515   -0.89999330664445
C        10.97858518435330    9.06619701234508   -0.84124874420007
H        11.24218120551600    9.59136350075576   -1.74525860207934
C        10.95284562007659    9.75140316435803    0.35749561934791
H        11.19773999885100   10.80304811387780    0.38106355263739
C        10.60999012496410    9.09889114293948    1.52607602999993
H        10.58723923654595    9.64853801544050    2.45315790992114
C        10.28724053676422    7.74909911707542    1.51750406289899
C        10.65980192250091    6.98705709975039   -2.22381287812888
H        10.68519715499613    5.90998323861244   -2.03833310421342
C         9.38032589674389    7.31794608790780   -2.99859892127413
H         8.49466268204374    7.00368555212834   -2.45039331815218
H         9.38639691508137    6.80806816758473   -3.95939944479422
H         9.31155368565979    8.38919681517818   -3.17751378246793
C        11.89147660418290    7.32164068574673   -3.06500908310914
H        11.87070417786388    8.34829714721266   -3.42186106855766
H        11.92896541350991    6.66258308638788   -3.92924429959304
H        12.79565278494480    7.16523035694491   -2.48385410013619
C         9.85935933391105    7.05109307655845    2.78722974860337
H         9.97908053379332    5.97168554787940    2.65223909741937
C         8.37952935277636    7.34171946008275    3.05980355288432
H         8.21731118830593    8.41283888924064    3.16014383877518
H         8.06757574637464    6.85694357934627    3.98205132824367
H         7.75321804340885    6.97417396234445    2.24940281060271
C        10.71487035164188    7.46118207035358    3.98588766299279
H        11.77046285796008    7.41482961668177    3.73043788515548
H        10.53354162632021    6.78263052514676    4.81570479960900
H        10.47613568896761    8.46856741080217    4.31689709293710
N         9.90209409358507    5.71324865189484    0.24729854892460
Ir       12.69194854610071    4.62316012141979    0.90202122208400
C         8.63085106795706    3.93246321633428   -0.04181649179076
C         7.29779426379264    3.43926728005789   -0.30913767038420
C         6.67175389547353    2.22474372076091   -0.41877042602921
H         7.20892418329960    1.29432709879058   -0.30200166579244
C         5.28852517265136    2.20893800753918   -0.69157912848432
H         4.80183122506428    1.24846727088478   -0.77988382704329
C         4.54503537303356    3.35227381783973   -0.84632997965388
H         3.48693203712221    3.28862576106311   -1.05375093597047
C        10.31735846240806    2.17262943600273    0.29361845171690
C        10.66173065903188    1.53195712767187   -0.90071145744876
C        10.97753779635038    0.18077943854220   -0.84218245942858
H        11.24033633960619   -0.34438823170063   -1.74642494311772
C        10.95312162510764   -0.50436479527898    0.35662576165837
H        11.19821248063121   -1.55596806957301    0.38000909413091
C        10.61133134680744    0.14816809231573    1.52550603461756
H        10.58960015622415   -0.40142498882152    2.45265033989603
C        10.28836968914156    1.49790966485389    1.51716186239868
C        10.65695912917906    2.25962232779125   -2.22466541439654
H        10.68176725797569    3.33675023003423   -2.03940713112045
C         9.37715823024549    1.92771094660010   -2.99847642006243
H         8.49166378535103    2.24148996303577   -2.44973220437684
H         9.38221963258661    2.43737620721253   -3.95939568048004
H         9.30899933122781    0.85637485591828   -3.17711010984279
C        11.88819835802572    1.92567426146101   -3.06675236315097
H        11.86801104800569    0.89883908706680   -3.42310742485990
H        11.92439461110641    2.58437384206254   -3.93131728536992
H        12.79271819118111    2.08313662845764   -2.48643294333716
C         9.86137117818237    2.19593833180143    2.78717757081885
H         9.98061465314346    3.27536905622896    2.65194098659110
C         8.38186113781800    1.90477701891620    3.06091272903500
H         8.22015813057536    0.83360064662553    3.16151243400792
H         8.07036357461406    2.38954300153756    3.98331586360269
H         7.75483215315802    2.27194121301919    2.25088732183475
C        10.71805777320596    1.78642650552920    3.98518915838132
H        11.77341667231635    1.83347113707327    3.72886530104083
H        10.53695732078091    2.46492307913781    4.81510470236944
H        10.48024404603905    0.77891418646591    4.31647116960593
N         9.90194109362162    3.53371676659675    0.24731037967266

