101
CSD_code = VAKDOC | q = 0 | S = 0 | Stoichiometry = C45H52ClIrN2 | MND = 6
C         2.63755734053039   -0.09104912352288   -4.53743688868390
C         4.75006281710199    3.30067973128614    0.72388009587866
H         4.13476271488297    2.44621790458734    1.01169197475926
C         4.86804638236181    4.20552638985166    1.94917554880908
H         5.52026408663439    3.75149798832227    2.69034734665795
H         3.88522596756286    4.33172816934531    2.39582537499769
H         5.25441900195348    5.18964618081134    1.69173565746862
C         4.04329413004561    4.03675364432453   -0.41908306645120
H         4.64571346644292    4.87557507109705   -0.76526872775440
H         3.08475577437508    4.41659549662795   -0.07436563555228
H         3.86383147192724    3.36923217691479   -1.25904611652402
C         5.84777985382261    1.07407146076539    4.43541204988878
H         5.13019874850257    1.88358236226231    4.53960208884359
C         7.28087454804498    1.54023588677506    4.36747249774308
H         7.29879838110985    2.51218030665762    3.86908361422182
H         7.66305308325500    1.69141861224395    5.38324760501118
C         8.19154929584894    0.57178475352905    3.59370156784404
H         8.66064196754052   -0.13910531861638    4.27598439531479
H         8.99373195562012    1.14432919167470    3.12322960159970
C         7.43682748576800   -0.18833859311044    2.52225357564990
H         7.79375225712827    0.02402899854622    1.51881806889814
C         6.85468925544610   -1.45074525526401    2.74133159778418
H         6.85843550423231   -2.14337469208447    1.90482240318648
C         6.84985742331719   -2.16948178047664    4.07257575359813
H         7.84620210578755   -2.57921013573701    4.27510847909236
H         6.16439126838566   -3.01627470147121    3.98673521242014
C         6.39628825400351   -1.27834072429174    5.24305569018482
H         5.90199102846383   -1.90208960197331    5.99067216329856
H         7.25950635905002   -0.81905389365958    5.72772320538429
C         5.44395337405698   -0.19207926633803    4.80010715953803
H         4.41868679832143   -0.31594973952546    5.13928615860602
Cl        3.22965642747110    1.00676291595797    2.79477362037928
Ir        5.32033941264930   -0.00345211434138    2.63338632757329
C         4.82243030560393   -0.29747286319992    0.68639082697951
C         3.58293901878565   -0.74656217256486   -1.11707501677714
C         4.35455344372403    0.36352760316690   -1.39823340241562
C         2.80819574379468   -1.11410975277516   -2.28062832075232
C         1.93756230044104   -2.11002426872637   -2.64570371160558
H         1.66437229804095   -2.90444253435619   -1.96622848493972
C         1.40398629345060   -2.08655392620373   -3.94964264957410
H         0.71342868093441   -2.86986491711296   -4.22762390903652
C         1.72377163490028   -1.11993977640353   -4.87092121860959
H         1.28721614753931   -1.14397863323104   -5.85872098793273
C         3.15328092086835   -0.12510963692124   -3.24642846984986
C         3.10016023616507    0.95979378360339   -5.36599650891321
H         2.73192984541566    1.04038023773957   -6.37830143177062
C         4.01266747969232    1.86766278284437   -4.88808810094797
H         4.35377544742370    2.66177320291023   -5.53682033743564
C         4.53635179662106    1.81242319996360   -3.58107253303548
H         5.25835193703076    2.54997335002872   -3.25996185457048
C         4.10639021850692    0.80963878537927   -2.74915525101942
C         3.38270462734926   -2.35948782749078    0.69873087625584
C         4.15989222280658   -3.51545137751640    0.54125531169750
C         3.63940182631593   -4.72525973107329    0.97635676421453
H         4.21561719162680   -5.62917782355412    0.86104147819692
C         2.38005108937098   -4.79272838697917    1.54142392329561
H         1.98780783459860   -5.74367391806978    1.87127203597657
C         1.61915496549475   -3.64923656847728    1.66745421052827
H         0.62973181838172   -3.71614318999323    2.09141987665561
C         2.09889172551928   -2.41374976791553    1.24695369890219
C         5.49996048067611   -3.47266162633352   -0.15807390273702
H         5.91459202528288   -2.46645065463738   -0.04794400416786
C         6.51077377753846   -4.46045484472565    0.42828418046115
H         6.51208940817487   -4.41649846291975    1.51469260380519
H         7.50987034708038   -4.21860236375565    0.07151952206015
H         6.28750600394779   -5.47963383483296    0.12263806554103
C         5.30748151771046   -3.75486873636180   -1.65273541104421
H         4.85721429919354   -4.73503266628859   -1.79555458827577
H         6.26828915011186   -3.73835551625851   -2.16302767794847
H         4.66057415801854   -3.01278213321302   -2.11449317831140
C         1.21898336147530   -1.19482114000814    1.37235430952340
H         1.81604569841005   -0.30160595350610    1.17986421589531
C         0.65740055762323   -1.06715601773821    2.78968587564902
H        -0.08212619232859   -1.83573376279260    3.00213133752231
H         0.18682189214721   -0.09444478348036    2.90471711598083
H         1.46107875597962   -1.13797371222865    3.51671559015427
C         0.07720051285152   -1.24593539220826    0.35376846408232
H         0.45876369547406   -1.21484500358775   -0.66409813901130
H        -0.57817910149037   -0.39022918907966    0.49753601930184
H        -0.51034803587130   -2.15407793719370    0.47612782323315
C         6.22119273428368    1.51101147322054   -0.28750321764041
C         7.42019089914877    1.07432264670873   -0.86671300664398
C         8.50538560974631    1.94033954060237   -0.85435940113771
H         9.44227205018430    1.62937534795869   -1.29043874385093
C         8.40166827591506    3.20035245012524   -0.29772821833455
H         9.25868537831678    3.85796229028126   -0.29178496963873
C         7.19837105207504    3.62939490996334    0.22665573570568
H         7.12130537341483    4.62724880930986    0.62758950902146
C         6.08521711748326    2.79839502613158    0.23671247771312
C         7.54411894678121   -0.26870736117624   -1.55377717209199
H         6.63299138836249   -0.84745061090336   -1.38491257976978
C         8.71877832723507   -1.09621298324705   -1.02778663969583
H         9.66624629486616   -0.59320487412312   -1.20116837616163
H         8.74725958810983   -2.05485170387133   -1.54188863584788
H         8.61759559591860   -1.28294507888535    0.03824637722249
C         7.68571387342419   -0.05923111876051   -3.06519202899632
H         6.83423316885670    0.49054874214466   -3.45905552822405
H         7.73471203373076   -1.02064881328718   -3.57195572482846
H         8.59148380254248    0.49723963774576   -3.29347524571533
N         3.88001854402502   -1.13788006053093    0.15832367198950
N         5.11451264152493    0.61559728750681   -0.29223171796922

