102
CSD_code = VAKFEU | q = 0 | S = 0 | Stoichiometry = C45H49Cl2O4PRu | MND = 5
Ru       10.61252441858855    1.95480809784113   16.02151971513822
P         8.86705106728205    0.94164743384504   15.02939606825283
Cl        9.53892990500074    3.94283445046995   16.22298610376760
Cl       12.13909474782324    0.70215701009205   14.87244390123862
C         8.50888396637881   -0.80455886855067   15.38581117894055
C         7.20869135223639   -1.29920416682629   15.40517087426851
H         6.37610171466688   -0.63668429575413   15.21410874897642
C         6.98561787982306   -2.63837131713908   15.67508574409200
H         5.97541445182824   -3.02098027292088   15.69161068913002
C         8.05237875675524   -3.48595537303598   15.92547211137575
H         7.87110641492875   -4.53037129136429   16.13349752600554
C         9.34872424429269   -2.99430288978244   15.91080935946977
H        10.18003154001552   -3.65337307807625   16.11278346367503
C         9.57888033453833   -1.65747561887398   15.64354484228371
H        10.58433865411419   -1.25792561850988   15.64568628273631
C         7.25789545408718    1.75309537202550   15.24798551103883
C         6.41626749030957    2.07180215333401   14.18927607110838
H         6.70847314964963    1.83627898366786   13.17500952499688
C         5.20684994175016    2.69721829482847   14.44080755286449
H         4.55348819624035    2.94999743224683   13.61832941923596
C         4.83753003033452    3.00422766280991   15.73953697099550
H         3.89558262073969    3.49787318110050   15.92865847899975
C         5.67852442920828    2.68908590791141   16.79627692399962
H         5.39368541628805    2.93835529271796   17.80763225255476
C         6.88790856486444    2.06746851778689   16.55334183258138
H         7.57054154897101    1.83710050973217   17.36241879263888
C         9.14733934115037    0.98384547549314   13.23574840612231
C         9.73769562670361    2.14854940143275   12.74719476715173
H         9.97015947407994    2.95725626800108   13.44098525874881
C        10.01626581664292    2.27198679051726   11.40000154371278
H        10.47510471639753    3.17318822782796   11.02024863736736
C         9.71160152757492    1.23033431288083   10.53646885238286
H         9.93469585337648    1.32219459709206    9.48369936689048
C         9.12990978273354    0.07013490526989   11.02025893015808
H         8.90056420786016   -0.74074299977004   10.34431258047571
C         8.84656952982416   -0.05955381665695   12.36920852128497
H         8.40059852534305   -0.96672619533369   12.75241024293251
O        12.42294118037878    2.96816134089218   17.18406325590601
C        13.51413821927863    3.71903604174810   16.66306585764053
H        13.77638031545142    4.51067210026463   17.38189176928185
C        14.71298071452985    2.81100132651119   16.39665344481019
H        15.06242695307551    2.34587784075827   17.31589780268685
H        15.52593647294266    3.38511681570999   15.96024646268087
H        14.42171343999062    2.02180275250466   15.70528078533141
C        12.98876749209590    4.34481508925951   15.37599941573173
H        12.65673206980149    3.54861423699116   14.70168437022854
H        13.76684046573120    4.91711220380536   14.87875758778385
H        12.14552640613175    4.99976379459751   15.59382875384014
C        10.41743378080337    1.08443522767415   17.71969266092155
C         9.63274433731144    0.12537710426365   18.41674597101139
H         8.76480485903170   -0.36975737641290   18.01577574481023
C        10.11396112001653   -0.05552007001049   19.69430476404562
C        11.27086883665241    0.82522217525608   19.87244493266382
C        12.18278142621342    1.05113115288879   20.87822935281705
H        12.15419194367830    0.53787034976009   21.82519307474609
C        13.21486070954839    1.98612121243016   20.66818186539290
C        13.35573238314261    2.66730925923510   19.45800077581302
H        14.15297851417967    3.37848100336058   19.31810571331533
C        12.45568200411595    2.41085971423501   18.42543846761993
C        11.42839771133761    1.50766903722827   18.64934268538236
O        14.04576656221630    2.12828246958119   21.73198506745488
C        15.09407109096744    3.08675194351889   21.72945669879993
H        15.63549861465801    3.04429315307907   20.77266367650464
C        16.04455302851488    2.67533890659512   22.84967984686971
H        15.51560467503261    2.68111619255581   23.79871745411817
H        16.88185137082347    3.36526467982383   22.90186087564378
H        16.41974408499752    1.67151969957071   22.66971418468778
C        14.54832523925864    4.49625458715849   21.96216223817103
H        13.81352883940007    4.75946936083464   21.20515896189774
H        15.35924555869164    5.21914524815858   21.93428930312330
H        14.06517607691938    4.54260514429245   22.93503747000083
C         9.57078915919196   -0.98222786936506   20.66803457868967
C         9.02592743061170   -2.19066979169149   20.21750645380124
H         9.05389002199080   -2.40087419145609   19.16099086392996
C         8.49541475343768   -3.08904004241024   21.12609311872266
C         8.49772151168870   -2.78661674392990   22.49154452911332
H         8.06804905406917   -3.51991437833444   23.15362466531760
C         9.02747244326063   -1.58763439828067   22.94301111843154
C         9.57043020596697   -0.68846180936510   22.02376600826955
H         9.95016991963251    0.25106994291266   22.38777415863484
O         9.06087309089312   -1.17627911330184   24.23669584502881
C         8.57884603869682   -2.01713697861878   25.27569412414407
H         7.62952449507431   -2.47837008324359   24.96728023542420
C         9.59970871301851   -3.10274300148660   25.61818762105508
H         9.82183711614352   -3.71218044950661   24.74573745873804
H         9.21289752512749   -3.74264058321939   26.40669090598919
H        10.52340532767001   -2.64009836009049   25.95768760988796
C         8.32157349359703   -1.10727118125282   26.47332373462693
H         9.24684324051595   -0.62031096637398   26.76926860169036
H         7.93901871764676   -1.68715843357461   27.30834173436580
H         7.59750485304804   -0.34104892157867   26.20964746099508
O         7.93294078560887   -4.29003930860342   20.81942760164932
C         7.94203633322613   -4.76501977901451   19.48029072088476
H         7.65941229267241   -3.95187754436656   18.79561894965892
C         9.32120402252980   -5.30740954339546   19.10368891653323
H        10.07543691873376   -4.52813477525025   19.17897845034701
H         9.30822418927621   -5.68751591321005   18.08601043700008
H         9.59158944626904   -6.11543516597946   19.77951957087259
C         6.88310176080834   -5.86164588756011   19.41217956278213
H         7.13538715603137   -6.65994313858034   20.10495831244667
H         6.82752299313600   -6.26698606511390   18.40591143257236
H         5.91203979946533   -5.45921371605140   19.68772687845447

