92
CSD_code = VAKFAP | q = 0 | S = 0 | Stoichiometry = C46H42OP2Ru | MND = 8
Ru        6.63718421363884   18.95137880850724   13.50521890928115
P         4.64221637914084   19.88603454697394   14.28060697183914
P         6.85840238119387   17.49960084272886   15.22710248856176
O         9.55876198425960   20.46676573916647   12.18896447411158
C         7.01108272833912   20.57770168401873   14.75797492432905
C         8.11573140129278   21.34511524912266   15.09629895450584
H         9.11509003966522   21.05474392944428   14.80281835844746
C         7.93760647122681   22.53699245822668   15.78804080365850
H         8.80395024707600   23.12720357093337   16.05280863335365
C         6.67398145921556   22.99736188320107   16.12568791060216
H         6.56591698106606   23.93469294741575   16.65292898943973
C         5.54712748427718   22.27776948144909   15.76010756235517
H         4.55461245238869   22.65888816861873   15.96260727394604
C         5.73903061700809   21.07239926237112   15.10372781904217
C         4.24197873972460   22.03281544775000   12.59214783552634
H         5.27424894345940   22.25240321336834   12.83033873203518
C         3.54468785023186   22.83384281715140   11.70868021180779
H         4.03417596040835   23.68030089749449   11.24933907814128
C         2.22024536453761   22.55173650919161   11.41227504386876
H         1.67534500017111   23.17601725350250   10.71966829311980
C         1.59699728588965   21.46898265247890   12.00918346530150
H         0.56358208478876   21.24849708885809   11.78346986132078
C         2.29089373501530   20.66306941652093   12.89517859005090
H         1.79239071934314   19.82562519109372   13.36093342404787
C         3.62025434583977   20.94074617083471   13.19525694723746
C         3.30089374977828   19.83661812258261   16.75517811827671
H         3.95185231092106   20.64788168762605   17.04211035336184
C         2.37171970706196   19.33968632184542   17.65137477435833
H         2.29089080241143   19.77747663402999   18.63542209930659
C         1.55008965898842   18.28443061987539   17.29392581082537
H         0.82928333758132   17.89608052987828   17.99818589687311
C         1.65475382273180   17.72503541543490   16.03097118346722
H         1.01475982119664   16.90124079805202   15.74846363572907
C         2.58005164815207   18.22069459174220   15.13165062569703
H         2.66146210391278   17.78920272576767   14.14237425181296
C         3.40998170087822   19.28167050437638   15.48649004367162
C         6.39274976521820   18.90648083032804   17.51463399527772
H         7.09335678873054   19.58382600838772   17.04413448561500
C         5.88520936512944   19.18145444966611   18.76910164107202
H         6.18274504376423   20.08358263456603   19.28342945891747
C         5.00166309679862   18.29712838726908   19.36705331402741
H         4.60371596931265   18.50758214115876   20.34886945825836
C         4.64088463912882   17.13531369717059   18.70807666676475
H         3.96257944268732   16.43667182477497   19.17628843104329
C         5.15076350828600   16.85284006879099   17.45233572811456
H         4.87491245670414   15.92958892137376   16.96492813998269
C         6.02020617765561   17.74560416415186   16.83842494346625
C         5.00110229835873   15.56196752126279   14.55347782445915
H         4.29135969026193   16.34351768125943   14.79069613791530
C         4.57242204191599   14.33267486915311   14.08937524375445
H         3.51626846876134   14.13815780104169   13.96889072779833
C         5.49960689764984   13.35294443093564   13.76745687027641
H         5.16720039997423   12.39324180301866   13.40053809919542
C         6.85354619018046   13.61408579096623   13.90114219922270
H         7.57762065723139   12.85874406156855   13.63185037653637
C         7.28538326372536   14.84092136129133   14.37496588380587
H         8.34323922390528   15.04219910227362   14.47450378375155
C         6.35976794310015   15.81820977728425   14.72816648764121
C         8.70515551068101   16.20237938293457   16.87768097140627
H         7.87007275671751   15.57595493157609   17.16294269348732
C         9.95042532615290   16.00672136987474   17.44219956461831
H        10.09385745246386   15.22098024182080   18.16994728192760
C        11.01481793382118   16.81911995860971   17.07945738593137
H        11.98702558256314   16.66199329764924   17.52329773402232
C        10.82930494864156   17.83225554968255   16.15486126245568
H        11.65470734267413   18.47035256101740   15.87577780865703
C         9.58317432184418   18.02991396804440   15.58442465836467
H         9.42429851297535   18.81977856131203   14.86464637233295
C         8.51963463498328   17.20978384661693   15.93268340327827
C         8.52216646614052   18.33481218095150   12.38035208131924
H         9.46463780934481   17.87545213119596   12.66977528314791
C         7.48648584883539   17.49042476252237   11.92112530245296
H         7.65762643453027   16.41796328162565   11.94930162576828
C         6.29786562623104   18.00423778972694   11.37462968660886
C         6.18310962867894   19.42668401211658   11.35430660301571
H         5.29107269760259   19.88002671243775   10.92416961185253
C         7.22144660642605   20.26900052040351   11.75298654670811
H         7.13675734918907   21.33946357697869   11.58000297628771
C         8.55423730790073   19.76176328999177   12.08733299298869
C         5.23982635255613   17.15465046714472   10.68215616181763
C         3.88370655664997   17.34325570601704   11.37335924665609
H         3.95669651488252   17.00445399418374   12.40573179010804
H         3.11558427692106   16.75996348649413   10.86842403206193
H         3.57601652578208   18.38785589966431   11.36981370493147
C         5.58885867897590   15.66342483332537   10.70520632701435
H         6.52043776184164   15.47268859574747   10.17624105959102
H         4.80077132012517   15.09889078976821   10.21046965084047
H         5.67618851527913   15.29412205098164   11.72434502862213
C         5.14207474001428   17.60009042934365    9.21417954663345
H         6.11595746314532   17.53273662994417    8.73262200448631
H         4.78937367958763   18.62516831462650    9.12995413363493
H         4.44709065451338   16.95849636630681    8.67594322073685

