85
CSD_code = VAKFUI | q = 0 | S = 0 | Stoichiometry = C42H35BF3NP2Ru | MND = 8
Ru       -0.89340295804654   11.30209099869976   15.21500978091037
P        -0.76209867594087   12.70533684724236   13.40580155555429
C        -0.80883244784973   12.37754356376895   10.60860549154877
C        -0.49105093390662   11.71959537279817    9.43535833135079
C         0.20901052119487   10.52370619874485    9.47356630098057
C         0.59946589309935    9.98864685667956   10.68971979970664
C         0.27657687729979   10.63929264858287   11.86735514624989
C        -0.44246885833080   11.82855191548188   11.83458592813362
C         1.78028691304703   13.74100293568205   13.58862119845658
C         2.81126823533377   14.61892535449106   13.31162717354255
C         2.55709984972445   15.77907601410569   12.59966604654078
C         1.27256121910691   16.05021427973956   12.15617062124234
C         0.23989333238961   15.16795570959659   12.41790657408252
C         0.48706317237551   14.01222430672411   13.15327866072862
C        -2.61961863746863   14.76153385039756   13.71636772611203
C        -3.86341802081495   15.35142103824722   13.58873806321721
C        -4.86282512635061   14.71498013540974   12.87046760163759
C        -4.61516101610316   13.48443182173222   12.28288900856317
C        -3.37010064758778   12.89478327602455   12.40385810480923
C        -2.35483094587707   13.53722768973782   13.10819224457464
P        -0.56134252982105   12.86171763673262   16.86484748361476
C        -3.13219356291614   13.93430712114658   16.64422967750448
C        -4.14746135985686   14.82728602866543   16.94148752840306
C        -3.91519523966807   15.86746834841827   17.82395970179124
C        -2.66655791986968   16.01199290856645   18.41116213523579
C        -1.65279934446709   15.12004964949989   18.11865521570458
C        -1.88027367995508   14.07216658252377   17.22677496729812
C        -1.18567898565711   12.28958223987670   19.57327642738663
C        -1.02662440338851   11.57817230101564   20.75020681341037
C        -0.07464538710755   10.57725001379764   20.84071399651810
C         0.70975568022591   10.27352877012419   19.73961481026982
C         0.54541602825293   10.96982032815395   18.55664053709512
C        -0.38937523457341   12.00172931073957   18.46887305771293
C         2.14547168890381   13.55225241297071   17.25437527769639
C         3.24003393397244   14.38476064402205   17.10105063377788
C         3.10060827729956   15.61964550080320   16.49167006332164
C         1.86000342978232   16.02445949004704   16.02576680440298
C         0.76757702241189   15.19093229409616   16.16051293321590
C         0.89825165912784   13.95182894143623   16.78613216597100
C        -3.02216947082026   10.59851765996300   14.97435229707320
C        -2.17836821164266    9.78709195562375   14.15572074507932
C        -1.28861131998809    9.08688094818466   14.99978060028287
C        -1.54673933542654    9.48196746859390   16.33817914904960
C        -2.63790211344931   10.39589845002856   16.31553251894801
C         1.00181308419193   11.03135921124792   15.23230698654628
N         2.09732388304482   10.64951770343164   15.30023674755143
B         3.61069463933885   10.62663432529481   15.67201851006534
F         4.18529861433775    9.54314122619857   15.08019838914375
F         4.14368147658003   11.81304521125877   15.21950110322236
F         3.66847708920046   10.55771081621032   17.04728898963215
H        -1.34474533378109   13.31595294836621   10.57554285166435
H        -0.78541141040246   12.14367266111178    8.48639073091952
H         0.45609825227772   10.01449699945164    8.55394810911146
H         1.15972821052952    9.06630724619224   10.72230484484357
H         0.58992304358771   10.23283807033751   12.82200470250124
H         1.98168222284304   12.84155631283527   14.15029468827480
H         3.80573339680997   14.38376031135927   13.65660644855615
H         3.35811330462164   16.47039899713962   12.38330537794175
H         1.07331422470847   16.95067363645568   11.59271090468316
H        -0.75368572994182   15.38464573052460   12.05146310330111
H        -1.84119275574475   15.24624716502245   14.28929521421234
H        -4.05519448205026   16.30590260443860   14.05672952559512
H        -5.83543632885226   15.17392193557904   12.77201485483997
H        -5.39603221130290   12.98242294449356   11.72991074345881
H        -3.17760503561821   11.93390020413871   11.94504624987267
H        -3.30504469593664   13.12784222601388   15.94474583353646
H        -5.11758302695543   14.71101652269964   16.48052895065757
H        -4.70445630012346   16.56699485513375   18.05653095662417
H        -2.48528052235375   16.82255420115835   19.10165975526149
H        -0.67928733837162   15.22837589724399   18.57690804853488
H        -1.93628027631900   13.06502826069954   19.52026940234243
H        -1.65213054941791   11.80975748732014   21.60028227018880
H         0.04900134740675   10.02990338309828   21.76335438313302
H         1.45117935309938    9.49097403968821   19.79500244610585
H         1.14389634855293   10.70338181709900   17.69641875117527
H         2.27565239324157   12.59572878563407   17.73422644050912
H         4.20491049027837   14.05442204070261   17.45176233706803
H         3.95697573052092   16.26703795096921   16.37603823918724
H         1.74521676963237   16.98565793411634   15.54603121689348
H        -0.19867265533999   15.50280533143011   15.78678097381571
H        -3.91591051974931   11.10655443415357   14.63422002294656
H        -2.31444455068708    9.60821123037352   13.09610887715142
H        -0.59873772949853    8.31179654320302   14.69300224317267
H        -1.13404616999593    9.02063250873769   17.22529013203170
H        -3.15233361903944   10.77237047055027   17.19181874496309

