26
CSD_code = VAKGOD | q = 0 | S = 0 | Stoichiometry = C10H10Se5Zr | MND = 12
Zr        2.15245030797287    1.49089447589819    2.23524949766870
Se       -0.07880351780624    0.55413459662579    3.21956234566387
Se        0.57881552550799   -1.64872900045002    3.61363419411636
Se        1.97789573909139   -1.48257479858575    5.47508691578013
Se        4.02910230719115   -0.84061059415554    4.56353950165472
Se        3.78840548529420    1.46151586275230    4.27010543988579
C         2.17867057473918    0.83408326350643   -0.19378097855474
C         3.50877621627051    1.17503437456331    0.14521906410707
C         3.97775866826383    0.23062720272712    1.08418359417407
C         2.93766967216767   -0.70119128064864    1.31922475119702
C         1.82407964643510   -0.32305896642245    0.53231758812719
C         1.88222798118719    3.61269234388111    0.91972075076876
C         2.85350201036603    3.88792990812230    1.90738781241350
C         2.20230407682351    3.89033027513864    3.16521090411468
C         0.84835430975750    3.57499511320364    2.95839676879979
C         0.64861386209055    3.38412171976790    1.56823495930807
H         1.57987486734973    1.28803424231969   -0.97531292490666
H         4.11253610230514    1.94185008324780   -0.32736112354783
H         4.99545674667506    0.14778335751675    1.45390668366577
H         3.03871069515571   -1.63709048391137    1.85804053873111
H         0.91251305622913   -0.89945998377928    0.40711319583816
H         2.02619824813282    3.70248532045304   -0.14991406468096
H         3.87634138568823    4.20378140314644    1.72997292984755
H         2.64573667999104    4.19660196270998    4.10670058670323
H         0.07158257947560    3.58409808223901    3.71568669328887
H        -0.31327322635458    3.24022152013386    1.08527437583594

