49
CSD_code = VAKHOF | q = 0 | S = 0 | Stoichiometry = C19H26Cl2OTi | MND = 8
Ti        0.75177724514241   10.53635354186045    3.22590578402784
Cl        0.22565171130813   12.56069463800005    3.89447688610424
Cl       -0.70494968672939   10.44251936916780    1.59147241109589
O        -0.02215063814380    9.64537046303023    4.39403343121980
C         2.93479384722142   10.63597778813071    3.83675229968471
C         2.81097771367050   11.41700379926964    2.64649573344818
C         2.40306764984325   10.55879298134299    1.60045357532935
C         2.27420050571408    9.23975459937444    2.13359121217893
C         2.62640939689439    9.28192317895626    3.51422110091431
C         3.46734718112668   11.15951517897970    5.13896811611211
C         3.20899214604956   12.85893483822326    2.53192331158974
C         2.26929547409146   10.90058059251285    0.14571458764995
C         1.98959730480107    8.02264064851818    1.30134205030763
C         2.75388411331380    8.10108511129924    4.43657751441103
C        -0.50304974079789    8.81452500280145    5.30820884255223
C        -1.17612698225693    7.65229533538319    4.89139543655604
C        -1.65143200749575    6.77302739726667    5.84795857803248
C        -1.48393723571406    7.01635407505763    7.20531068625292
C        -0.82949419547744    8.17693990213340    7.59832678001740
C        -0.33516881701987    9.08470861030859    6.67648954062819
C        -1.36295426472421    7.42903463796764    3.42141366387060
C        -2.00963374675456    6.06232840810795    8.23476053393382
C         0.36465813823949   10.34017692019332    7.10982408060145
H         3.39693040644735   10.40783345377321    5.92212849466797
H         2.91685682747458   12.04779080453596    5.45312051258703
H         4.51759668509135   11.43711688922822    5.02666373712369
H         2.76226854153428   13.32226091107868    1.65370698709710
H         4.29580782940139   12.93857344236754    2.44702370331943
H         2.89246038955038   13.41984641041916    3.41084763297565
H         1.39087358884104   10.42088758418136   -0.28636538360964
H         3.15054423986695   10.55491319609445   -0.40049558458624
H         2.17801545738977   11.97575279196011    0.00178163591016
H         1.06749106983223    8.15110189680912    0.73077123791840
H         1.90192692005876    7.13082403085132    1.91986107033153
H         2.80341891899398    7.86223933160627    0.59038308978110
H         2.53733710768329    8.38219354668383    5.46727520746978
H         3.77093023029180    7.70231701504476    4.39768539179518
H         2.06523152820797    7.30374749763833    4.15651629941662
H        -2.16731564341014    5.87920987363636    5.52657023099718
H        -0.70249595761136    8.38313013124337    8.65183583023624
H        -1.72521989480069    6.42405463130825    3.22122519961602
H        -0.42059501228327    7.59282238510274    2.88922870549854
H        -2.08442938718602    8.14841095631594    3.02623540018040
H        -2.37711359290415    5.15127003742973    7.76963944907693
H        -2.82834822129022    6.52065252007241    8.78938112130189
H        -1.22992682700469    5.80186731580815    8.94908719448199
H         0.48985494683354   11.01839970140072    6.26063475969199
H         1.34652410371536   10.10714540815484    7.52451849540806
H        -0.21077936702502   10.84530121938024    7.88352342480351

