113
CSD_code = VAKKID | q = 1 | S = 0 | Stoichiometry = C60H48AuP4(1+) | MND = 4
Au        2.60598666761223    0.98592877267500    3.61979050878351
P         4.46745844643508    0.44243639593970    2.29802444106532
P         2.25269474334662    2.52730286837571    1.57148334835940
C         5.37101137640094   -1.11731492613272    2.47017036979914
C         6.66772136198518   -1.28546376798045    1.98858974959476
C         7.30292569872776   -2.50175675363291    2.15515276469656
C         6.65842492415834   -3.54460536876804    2.80366690261562
C         5.37494806521957   -3.37374809914497    3.29707090809264
C         4.73321691828917   -2.15991658940684    3.13514613460491
C         5.80299694099951    1.66565627021626    2.31415539807648
C         6.33777999429505    2.24395219014098    1.16878121811538
C         7.36927866435485    3.15738810618725    1.29030067329980
C         7.86339564031435    3.49426384183505    2.54020817466564
C         7.32891689073143    2.91812649471248    3.68198710845071
C         6.29959985823221    2.00502987601801    3.56924405954533
C         3.86698777234090    0.48568625114844    0.59525999694839
C         2.89196116586693    1.43870557639722    0.25681400695048
C         2.44636364608160    1.50625721083962   -1.06003912281324
C         2.94137969596219    0.63777718058749   -2.01633400550680
C         3.88013486872476   -0.32161290213095   -1.67086666879333
C         4.34159779801532   -0.39771915696420   -0.36965352790999
C         3.50176874045894    3.85164384162065    1.51846200026924
C         3.86063383942288    4.43512131508370    0.30574200761380
C         4.80511350634492    5.44283336498423    0.28439104394872
C         5.39786228687581    5.86947102224117    1.46318873312466
C         5.04648393631259    5.28694236468378    2.66895612466526
C         4.10092989790122    4.27917421229634    2.69630087301415
C         0.79626412222657    3.30434012590195    0.81468162302209
C        -0.21996845927318    2.46780505603146    0.35201728419146
C        -1.40340761748055    3.00706040344128   -0.11325369603204
C        -1.59171736839793    4.38115268083211   -0.09734071604826
C        -0.59723892532535    5.21189439821012    0.39219310145287
C         0.59173913862704    4.67961010719255    0.85836744140957
H         7.16994551463812   -0.46672455624674    1.49109531447690
H         8.30628450273625   -2.63681722109965    1.77981404714597
H         7.16243170366601   -4.49051389826230    2.93118591456539
H         4.87967592041619   -4.18294648737739    3.81266933950488
H         3.73631654357744   -2.00164540571184    3.52899723676723
H         5.94952590982100    1.98439074013620    0.19307888272459
H         7.78985431568126    3.60763562196106    0.40360433013440
H         8.66770949894764    4.20923689280931    2.62386620398818
H         7.70919508828211    3.18301907963080    4.65745216223264
H         5.86415405518536    1.54729958967998    4.44922443331901
H         1.70227460720898    2.23901989104602   -1.33985549535504
H         2.58769463623310    0.70697115474950   -3.03390680633487
H         4.25449711465247   -1.00811695894716   -2.41481837565032
H         5.07335843706114   -1.14513865690573   -0.09540120737607
H         5.08085329276398    5.89860181981424   -0.65486943532970
H         6.13536842723655    6.65724741285962    1.43984212260783
H         5.50882726336335    5.61189612076898    3.58911204392675
H         3.82998748446947    3.81537565470777    3.63981980099835
H        -0.06704113453536    1.39468786675714    0.34715103940316
H        -2.18163263963481    2.35702624064936   -0.48537448744397
H        -2.51613503595979    4.80263520484027   -0.46226629970057
H        -0.74726721592325    6.28132965461822    0.41020331047095
H         1.36610516495830    5.33009474168265    1.24240517631566
H         3.39564835499325    4.10129417452037   -0.61194195098080
P         0.74477278371842    0.44248417039967    4.94229195824489
P         2.95950645010458    2.52734008944621    5.66886539949536
C        -0.15878331786455   -1.11729282309476    4.77021750385520
C        -1.45551802685585   -1.28545446767108    5.25172188654662
C        -2.09069858652464   -2.50175193675439    5.08508410165959
C        -1.44615533025141   -3.54457486740211    4.43656834135210
C        -0.16263590706478   -3.37371153097787    3.94327737360346
C         0.47907055427455   -2.15987894123266    4.10528222261077
C        -0.59082997743290    1.66565611431528    4.92619867030849
C        -1.12563002569914    2.24394110512708    6.07157465437455
C        -2.15709701032721    3.15741545829704    5.95004720826723
C        -2.65117014289012    3.49434255812820    4.70013641356059
C        -2.11669147480299    2.91819758931593    3.55835854557023
C        -1.08740470473046    2.00507022390983    3.67111378238226
C         1.34519915008428    0.48576433294468    6.64508952151511
C         2.32025524380506    1.43874196917193    6.98354539187667
C         2.76591472960558    1.50625933380744    8.30037872043079
C         2.27091365883383    0.63777149574179    9.25666721918748
C         1.33211018773166   -0.32157067064453    8.91120621869533
C         0.87058293995183   -0.39763613344241    7.61001306714020
C         1.71045132091686    3.85171026755619    5.72194944992799
C         1.35158962166203    4.43518716415504    6.93466815280398
C         0.40709213654792    5.44288305796303    6.95601645612319
C        -0.18566740834110    5.86950641448285    5.77721817656994
C         0.16570785106741    5.28697518027861    4.57145132491481
C         1.11127155968227    4.27922029734726    4.54411255867450
C         4.41598128024175    3.30437059723808    6.42562600719382
C         5.43219824505104    2.46781230031669    6.88827946713236
C         6.61563622100962    3.00704342549287    7.35357302179612
C         6.80395842172664    4.38113409855102    7.33768698767431
C         5.80951100201264    5.21189582881251    6.84812652794826
C         4.62053444006099    4.67963459367883    6.38192727785129
H        -1.95778885630629   -0.46674437390083    5.74922155563680
H        -3.09405091801714   -2.63686327887150    5.46042085901375
H        -1.95012954518022   -4.49050102080692    4.30903547762120
H         0.33268982050058   -4.18289137098572    3.42769740078573
H         1.47596321820589   -2.00154272128510    3.71143209387558
H        -0.73738803555413    1.98437295818522    7.04727907757068
H        -2.57774782066974    3.60757988648295    6.83675020466243
H        -3.45552612368237    4.20926654816558    4.61648201089473
H        -2.49695746173698    3.18310486855248    2.58289541559241
H        -0.65191710159836    1.54739424904702    2.79112347400658
H         3.51000475832696    2.23903035918496    8.58016418940578
H         2.62459919942752    0.70696634186109   10.27423986786036
H         0.95773060030420   -1.00806066135275    9.65516061687521
H         0.13884275215175   -1.14507781669785    7.33577734827967
H         0.13134121947806    5.89864774456163    7.89527442037460
H        -0.92313920615219    6.65731465502137    5.80055749678174
H        -0.29660839940948    5.61194697581507    3.65128678272446
H         1.38222668299371    3.81542983893539    3.60059154585188
H         5.27923192746361    1.39469731296361    6.89315200779540
H         7.39387660968269    2.35698986262616    7.72563628502598
H         7.72842758090916    4.80258995380679    7.70251902222458
H         5.95957981272955    6.28132902925139    6.83008288107869
H         3.84614587792547    5.33013212943337    5.99794527851248
H         1.81654147814338    4.10132119564981    7.85235551703036

