113
CSD_code = VAKKOJ | q = 1 | S = 0 | Stoichiometry = C60H48AuP4(1+) | MND = 4
Au       11.18973277692148    1.45274047029993    4.80772779864833
P        10.90966029246756   -0.88139271087633    5.14999382234566
P        10.95053319308704    0.66379930338530    2.43839392852439
P         9.37883075082286    3.23962907304412    5.13114397410628
P        12.45738647832012    3.23342169166037    5.66387156152487
C         9.20828361129037   -1.48310875408218    4.99750527456105
C         8.92436983669990   -2.80743663824441    4.67417913410404
C         7.60719273966552   -3.21078954474911    4.56693190861381
C         6.57831034539339   -2.30479731602582    4.77689266465012
C         6.86127599752660   -0.98677319358571    5.09378149303463
C         8.17624860887100   -0.57546523682294    5.20231105470340
C        11.60601866925990   -1.74112717146547    6.57905898014458
C        10.83273390484305   -2.42519192466883    7.51034594103074
C        11.44312232462116   -2.98967727644934    8.61690563962474
C        12.81025055830063   -2.86372158649635    8.80228139568075
C        13.57794442837752   -2.15942548023283    7.88607713730610
C        12.97828830479935   -1.58799508115497    6.78184980438834
C        11.73289390977079   -1.65256026893014    3.73409387652529
C        12.34553953591102   -2.89915584773823    3.82904646691980
C        12.94596332885192   -3.46691907342861    2.72038223018894
C        12.94010317764576   -2.79648091665592    1.50666639290065
C        12.34068394842470   -1.55486724607910    1.40040161669679
C        11.73296975452938   -0.96980914513819    2.50814818837323
C        11.51233701821403    1.36165403531205    0.86118613353729
C        12.88527617411083    1.56468316782678    0.72028574940638
C        13.37643961320463    2.21157874490740   -0.39606250097789
C        12.50064041862603    2.68077375423696   -1.36386627503802
C        11.13521327988119    2.50007935541005   -1.21377693575760
C        10.63403832842221    1.84875957037277   -0.10031904649314
C         9.20931781509574    0.23745248167775    2.15024893406091
C         8.81650933949264   -0.99450127650812    1.63578294586368
C         7.47182489878602   -1.26409360319830    1.46125444079369
C         6.51773478327968   -0.31563621078158    1.79298130985456
C         6.90594458370353    0.91103765365278    2.30626433593015
C         8.24746636623129    1.18461668705151    2.48903117820522
C        12.98312536235588    4.53984132375680    4.52956270086798
C        12.81762883627967    5.89559540016895    4.78643515227140
C        13.24460755369826    6.81857012228400    3.84859776366563
C        13.82872837762103    6.39623248867199    2.66533146760089
C        13.98722380583250    5.04337501849074    2.40683657515036
C        13.56052517666134    4.11503490917928    3.33529549635403
C        13.93404421005318    2.82189926505879    6.62115025549496
C        15.16381051162236    3.45212852813534    6.46913372083119
C        16.23682797612281    3.03659287906822    7.23852999814200
C        16.08766676352466    2.00129935131170    8.14740328043412
C        14.86271614386454    1.36599857056837    8.29054848748164
C        13.78846714036243    1.76817387542775    7.52265989632568
C        11.38262636636429    4.05100832847258    6.86200756296063
C        11.90646623354920    4.66367803062122    7.99713161749048
C        11.06544438105033    5.27808475149488    8.90616352043209
C         9.69626833909542    5.28064894818820    8.68866100542537
C         9.16456775927040    4.66796322627918    7.56795619998187
C         9.99681554557222    4.04404373001807    6.64352778450547
C         9.73403352251068    4.58257801078549    3.95348526700297
C         9.40466900401904    5.90114880352202    4.26070715189158
C         9.68249286286637    6.90472507842963    3.35342797834087
C        10.28880789516832    6.60494769566817    2.14241538676871
C        10.61926836086189    5.29628150361020    1.83570059317289
C        10.34460009991149    4.28846256166314    2.74132158340242
C         7.57280396835620    3.30606147194322    5.31913452345246
C         6.74094708165864    3.89023974459991    4.37019899486362
C         5.36771109709102    3.78803430458352    4.50698193200227
C         4.82003444084602    3.09060226437484    5.57128057265576
C         5.64752565626023    2.48692010602713    6.50609698967626
C         7.01915966257223    2.58400048540070    6.37666132686079
H         9.73018955696191   -3.50975637211567    4.50938990846647
H         7.37977282515123   -4.23682640682918    4.31897811568541
H         5.55234330642084   -2.62902171235811    4.68993182616939
H         6.06218739057188   -0.27750291568928    5.25170505811255
H         8.41576678142368    0.45523135970392    5.43755749694906
H         9.76540826678853   -2.52021085023106    7.36397124825869
H        10.84808247102410   -3.53065862368332    9.33745534405405
H        13.27904245058774   -3.31052330238999    9.66589957981460
H        14.64269259945551   -2.05675591247424    8.03466742394033
H        13.56196376572316   -1.02626274764329    6.06129030305656
H        12.35832392885501   -3.41889049479300    4.77761108334889
H        13.41830546047783   -4.43404667933104    2.80233448697903
H        13.40466194631537   -3.24194591109747    0.64008671086034
H        12.33924961901326   -1.03552801758936    0.45199075925202
H        13.55758117791252    1.19372596352889    1.48536425238518
H        14.44079997543285    2.35303641978220   -0.51325502406430
H        12.88426181033531    3.18994641180822   -2.23496950211593
H        10.45533313385314    2.86883546720498   -1.96727941921861
H         9.56824764861189    1.70911101819105    0.01932764081216
H         9.55753922313642   -1.73788697900054    1.37645726412141
H         7.16700919451194   -2.22057519463248    1.06378997245197
H         5.47008159924526   -0.53462724742100    1.65360750635032
H         6.16594286380635    1.65104032891503    2.57325449984072
H         8.55673576942154    2.13829795100356    2.90432549286156
H        12.35879738697274    6.22317792382253    5.70920854237570
H        13.12097493009412    7.87328889985984    4.04351082951338
H        14.15903664703781    7.12441511927161    1.94024319904647
H        14.43582781374522    4.71540591126567    1.48108671652144
H        13.66177021560227    3.05255358545648    3.14913759386421
H        15.27536143719671    4.26118896897344    5.76038611683795
H        17.19340691434376    3.52503952776142    7.12880055828918
H        16.92995002379470    1.68540974507680    8.74390543173807
H        14.74727207117987    0.55706055799634    8.99636789820603
H        12.82537668705956    1.27640569658399    7.61065182118939
H        12.97582967620779    4.65531902845021    8.16097431228814
H        11.47692215286143    5.75531722799785    9.78243677266380
H         9.03750799945694    5.76261729127130    9.39524290873035
H         8.09472487472871    4.67494491375320    7.41221775262274
H         8.92980986441021    6.13260869888088    5.20483279028491
H         9.42441662091263    7.92625480909668    3.58986421012669
H        10.50241775831295    7.39456885031121    1.43821554699261
H        11.09206224089036    5.05522809041420    0.89503065397880
H        10.61021792456631    3.26293745647364    2.50727687327856
H         7.16543345567675    4.43135261757316    3.53528992327788
H         4.72234807535882    4.25444005637944    3.77725944516098
H         3.74806745610589    3.01402195022351    5.67121475319503
H         5.22214043021309    1.93850792017397    7.33356514002057
H         7.67351135523445    2.11335833755171    7.10144284267813

