54
CSD_code = VAKNUQ | q = 0 | S = 0 | Stoichiometry = C18H25N2O5PSi2W | MND = 6
W         1.14384931434980    3.55665474262411    3.51957289314236
P        -0.48435829199695    5.38653597209760    3.74317468040550
Si       -3.04555813992616    6.22970687498817    2.25387642596850
Si       -0.22411679138066    8.06774037638754    2.25479844285252
N        -1.68517049457807    5.34468309731221    5.00862397194387
N        -1.20246951390793    7.25314059460158    7.43207117646671
O         3.21307435132733    1.22449230604109    3.28687983301130
O         3.12702927060591    5.18915290170254    5.32621633024081
O        -0.09609793534652    2.44325123975627    6.18239365679084
O        -0.88744881358823    1.92160959961451    1.76624131736864
O         2.23981649761023    4.82750240886970    0.86539823021130
C         2.45496734774732    2.07669986982695    3.36943240840999
C         2.42381995897720    4.59450380874759    4.64725471111812
C         0.36594041193881    2.80988230751826    5.20471740545729
C        -0.16125887885708    2.52175594865374    2.41203034795790
C         1.85794379701589    4.36685909585659    1.84067294717903
C        -0.77580909042063    6.23706178501784    5.26371686124392
C        -1.12967836545110    6.37712048562878    2.34699966704420
H        -0.75853372389000    5.80826457982051    1.48521286317008
C        -3.63418784026385    7.03917436363192    0.63254614269622
H        -4.66317224810506    6.76320057752737    0.43073328899694
H        -3.03805239294916    6.72814458701519   -0.21814665292711
H        -3.59311077930363    8.12137425872735    0.68994277908870
C        -3.40802533893941    4.35966922634563    2.23846382660948
H        -2.92721795876396    3.88288542047493    3.08974177212178
H        -3.02925343985232    3.88512729912971    1.33723683765976
H        -4.47122946507827    4.14763019523315    2.29811745467153
C        -3.95246359134263    7.05918616710666    3.71293430537135
H        -3.54682305426178    8.03734455816651    3.94790062753088
H        -3.88105836212293    6.44468441702022    4.60378058142545
H        -5.00496387939510    7.18529546368535    3.47790850346880
C         1.60876535520349    7.79190233824704    2.71114449701237
H         2.16392690411385    7.39243740275138    1.86731376362370
H         1.71167120088269    7.08083469737067    3.52888671221514
H         2.09572750712071    8.71634805185976    3.00837473155454
C        -0.29965302540032    8.71509786372286    0.46446079550412
H        -1.31441862171820    8.94482343744886    0.16011764306231
H         0.09945351757749    7.99153044100640   -0.23920379691951
H         0.28550577619928    9.62337399368006    0.36569910850362
C        -1.01263704949872    9.35478377648334    3.42151442247416
H        -0.38898770195359   10.24130166233521    3.48143163393479
H        -1.13894334488276    8.97617385881229    4.43058085895725
H        -1.98507020353182    9.66749948195842    3.05492591387089
C        -0.44319375501390    7.12188235072901    6.28876125903863
C         0.65519740668614    7.97471592759522    6.41018962540603
H         1.43285825146541    8.09565484580043    5.68347552159369
C         0.54249321715331    8.61702934958507    7.63781463124567
H         1.21963269923214    9.33707189159261    8.05148283403237
C        -0.61200014557142    8.14844823629898    8.23797460221927
H        -1.03267412278379    8.40402588414702    9.19168946107107
C        -2.43028845827318    6.55556567366805    7.68690962768866
H        -2.62270787103070    6.53243558774983    8.75831563349465
H        -2.36117203066173    5.53772714254461    7.30292224279966
H        -3.26486806516531    7.05200157548453    7.18477464091392

