101
CSD_code = VAKPAA | q = 1 | S = 0 | Stoichiometry = C54H40CoN2P4(1+) | MND = 6
Co       -7.60368040018861    6.10762696173407    0.00009771515520
P        -6.75956056802721    4.26136306134879    1.23604713255501
P        -8.26745551271184    7.14336292439496    1.99764594631701
N        -4.76549336219697    7.08424459645122    0.32373390688545
C        -5.85745035498239    6.73863384285969    0.21361992687207
C        -6.51165913791064    5.17355816682193    2.73477843518487
C        -7.15286403603510    6.20681060352618    2.98552245900521
C        -5.17535232873324    3.49546872360025    0.81871509495704
C        -5.15062646561157    2.27354571300520    0.14677694471987
H        -6.07792683899706    1.78044597293552   -0.11365247182176
C        -3.93650183122036    1.69066673937038   -0.16730396516986
H        -3.91625195680893    0.74187270157898   -0.68214188942116
C        -2.75145008885585    2.32242750774813    0.18081670494667
H        -1.80654082697735    1.86287363066943   -0.06608374725639
C        -2.77811418019472    3.53607166823725    0.85020211127990
H        -1.85567993213082    4.02236653917411    1.12789520694528
C        -3.98664351370740    4.12844664623045    1.16894765782234
H        -4.01679037361520    5.07557203513988    1.68825302311265
C        -7.70736339512439    2.87133493898901    1.93802517073274
C        -9.08383853354421    2.75669290899053    1.78940077281471
H        -9.63597968298403    3.47343381057563    1.20014747346068
C        -9.75848615449487    1.72113415182091    2.41424383196267
H       -10.82732042183999    1.63420308815914    2.29131189742174
C        -9.06775680584843    0.80926221007775    3.19381367438156
H        -9.59592858956926    0.00300035039488    3.67938193910930
C        -7.69657426149633    0.93711023965482    3.36082995194452
H        -7.15810732455626    0.23593180986502    3.98015894556531
C        -7.01452970483291    1.96545825140923    2.74054469100656
H        -5.94786824275542    2.07266134152936    2.87944207819564
C        -8.04884762373135    8.89993698053964    2.37750848506548
C        -7.10963877965912    9.62916621539919    1.65403455047382
H        -6.54141658040580    9.14503560954159    0.87241321379427
C        -6.89525870502473   10.96345360409516    1.94889969373751
H        -6.16756067056413   11.52707585846100    1.38468095283820
C        -7.61531147224534   11.56981472565249    2.96595142537461
H        -7.45235983544789   12.61199297687351    3.19415653138334
C        -8.54015550699638   10.83922864919698    3.69710744869589
H        -9.09018393162634   11.31087357378883    4.49724814488011
C        -8.76230102416634    9.50517050805430    3.40985176427056
H        -9.47981158862127    8.93586680963492    3.98312195158571
C        -9.89202179934284    6.68906460998930    2.65399740440786
C       -11.00318366955903    7.45271514585632    2.30348210255567
H       -10.87384127880131    8.36058769059498    1.73307567342635
C       -12.26519570983742    7.05206184760702    2.69784193827579
H       -13.12300342524554    7.64725468991274    2.42400349325269
C       -12.42763368975576    5.88979344880012    3.43503944736839
H       -13.41538032872547    5.57520680739773    3.73484543010826
C       -11.32283760652125    5.13114892379962    3.78720084303618
H       -11.44540335004167    4.22842415041527    4.36643159747037
C       -10.05664638646998    5.52117063201793    3.39298156999017
H        -9.19461275251940    4.92711207435495    3.66328177374565
P        -8.44705123232446    7.95739408252799   -1.23520702370980
P        -6.94217067081735    5.07196350597573   -1.99773799520626
N       -10.44183266114549    5.13159098933875   -0.32588161708317
C        -9.34996481314620    5.47704486896238   -0.21423927649727
C        -8.69326517213558    7.04240922936909   -2.73202354286157
C        -8.05561260352250    6.00828421523881   -2.98762702774407
C       -10.03179311900348    8.72266957842605   -0.81873465689591
C       -10.05742483113313    9.94431396349235   -0.14632027538791
H        -9.13048512069492   10.43786275182451    0.11456071006105
C       -11.27195538947590   10.52635434615430    0.16770628907819
H       -11.29288937552328   11.47490658657746    0.68296048303440
C       -12.45655194922959    9.89406779660821   -0.18103103572904
H       -13.40179339216897   10.35299752053577    0.06575350572470
C       -12.42900265328690    8.68070323491295   -0.85089483772782
H       -13.35107454918436    8.19400138962782   -1.12908789648799
C       -11.22005677357440    8.08909949834516   -1.16949218102230
H       -11.18928839329329    7.14208199881196   -1.68896927108000
C        -7.49970087290502    9.34760495487802   -1.93745392083842
C        -6.12314141979379    9.46197561757845   -1.78917294735167
H        -5.57103435533451    8.74523754375369   -1.19985551909517
C        -5.44841142124584   10.49717799689534   -2.41449685632241
H        -4.37952524505839   10.58391650391840   -2.29187322330799
C        -6.13911729240650   11.40896163331545   -3.19419093817979
H        -5.61087432283382   12.21493079309430   -3.68016588018686
C        -7.51037302753745   11.28143913962261   -3.36077773674617
H        -8.04883480207175   11.98255964702813   -3.98018340132179
C        -8.19252481653324   10.25347057096901   -2.73997400580110
H        -9.25927806850046   10.14661662717694   -2.87850714851247
C        -7.16023781332024    3.31547209392580   -2.37801419251966
C        -8.09851318510944    2.58543225264353   -1.65417132704853
H        -8.66617113464293    3.06888401228347   -0.87173126917442
C        -8.31260604249219    1.25124016906282   -1.94965466887145
H        -9.03965359739654    0.68700029721735   -1.38521641116535
C        -7.59314028353600    0.64577789039000   -2.96765273011137
H        -7.75590116627238   -0.39631535506273   -3.19637811839736
C        -6.66916710066086    1.37715825132068   -3.69912558134848
H        -6.11956433821706    0.90618848701988   -4.49995719120402
C        -6.44739425893113    2.71114825203473   -3.41131567565029
H        -5.73062337893521    3.28113080465427   -3.98483592985422
C        -5.31738075072925    5.52680186738059   -2.65333251905860
C        -4.20642380308212    4.76252769912623   -2.30351768961558
H        -4.33605141294232    3.85400679135239   -1.73422276560344
C        -2.94425409425039    5.16333721373606   -2.69723226377213
H        -2.08663016269035    4.56765916143357   -2.42386773457464
C        -2.78140553953836    6.32637175832914   -3.43311896886926
H        -1.79352689699542    6.64113292036586   -3.73231020128981
C        -3.88598981915260    7.08558180489940   -3.78469841430502
H        -3.76315018694720    7.98890778457461   -4.36293616446367
C        -5.15232515719068    6.69540287635739   -3.39109224012393
H        -6.01416099182672    7.28987971371656   -3.66102677020398

