70
CSD_code = VAKTAC | q = 0 | S = 0 | Stoichiometry = C27H40IOsP | MND = 9
Os        4.56764490788161    8.14318432747575    1.74706231016061
I         5.48910089382562   10.47328231433516    2.65135730767266
P         2.50195349419175    8.28597227269687    2.73683888998625
C         5.42179367648125    5.94554970151822    0.52595320140451
C         6.35578202973311    6.98251539007828    0.31973508873161
C         7.06028601427100    7.52772982868931    1.39019464287732
C         6.86827111065738    7.06283738773482    2.70780882827318
C         5.89287008651223    6.09437806898861    2.92192946433363
C         5.17234295281695    5.55268361644437    1.84526503212543
C         4.83344115309206    5.15582314417855   -0.61855392426128
C         5.88298758553490    4.13896509137124   -1.08518704995002
C         4.37042887081753    6.02591802636652   -1.78487619112761
C         7.73270999361058    7.56769293528655    3.81959546301571
C         2.57186131735781    8.96588531180703    4.48689461474172
C         3.68757674607051    8.29013457976540    5.28524519296143
C         1.26946890638769    8.96749868279945    5.27934753385164
C         1.27655613388647    9.38788336890921    1.82613822509920
C        -0.21797220329922    9.19419642900652    2.07948154534704
C         1.66754102226569   10.85282485852225    2.00094628957425
C         1.51371634327699    6.69405426120048    2.83618372926904
C         1.45538699956300    6.12100007035078    1.42222579991104
C         2.10230221661333    5.67954529285290    3.81179460365371
C         3.82495752141634    8.92837785738728    0.07062045832897
C         3.52017226299406    9.43828782071738   -0.98794578421574
C         3.11214142653235   10.05560351737622   -2.19500494464442
C         3.24038199370960    9.40966506001623   -3.42597504347946
C         2.83410778782242   10.03776785183479   -4.58720940388877
C         2.29559120829186   11.31349446323242   -4.54199298740119
C         2.16605738276071   11.96200281462277   -3.32342106142110
C         2.56882466268554   11.34267950815514   -2.15769595187098
H         6.59067306641327    7.30326727695865   -0.68649279943456
H         7.82381415827905    8.27394788986415    1.20439804010549
H         5.73542872955450    5.70160174246482    3.91911742405171
H         4.49530657420881    4.72588540235439    2.02775628931867
H         3.96672588792900    4.59810835667834   -0.24117184485500
H         2.88168043354917   10.00547972421387    4.32111709779657
H         1.48133932986697    9.13007529833022    0.77829324799076
H         0.50301218347717    6.94729007507492    3.16791067340030
H         3.66011771043596    8.41413122939743   -3.46498371590136
H         2.93833447286635    9.52987551950097   -5.53638504712736
H         1.97998629796284   11.80128309210406   -5.45308102559027
H         1.74902538775087   12.95878720630522   -3.28531140266436
H         2.47697135880347   11.84450323438187   -1.20529858777195
H         6.18247714551578    3.48563309160486   -0.26692341274044
H         5.47584798738280    3.52553728048581   -1.88541129512852
H         6.76852849954716    4.64951786500365   -1.45925138732989
H         3.73036074660978    6.83300419175032   -1.43017884175510
H         5.21849916185502    6.46408260028118   -2.30638737441550
H         3.81266627515435    5.42137046010573   -2.49661892643288
H         8.76906838930206    7.28046511003674    3.63967510291746
H         7.69896389803728    8.65630185231533    3.87766670479002
H         7.41981937909974    7.15821160870925    4.77819014312264
H         3.37861734086659    7.32305820335697    5.67263400251149
H         4.57220633797259    8.14975295422535    4.66506091496774
H         3.97269032736283    8.91808444100696    6.12727516740732
H         1.47443175389785    9.30317402653914    6.29536832638458
H         0.54445328629813    9.65053542788506    4.84809397930481
H         0.82685215739524    7.97604712844275    5.33695420745456
H        -0.48526868798459    9.33798456751996    3.12160208292241
H        -0.75883213278562    9.93667685882083    1.49436434609714
H        -0.56595504965558    8.21533875767385    1.76146399945125
H         2.72620624551775   10.97787459663267    1.78829978118023
H         1.10767529128941   11.46705044857539    1.29870547770873
H         1.45547869309227   11.21015734240052    3.00550948076248
H         0.94450900057692    6.79917676840271    0.74326742872326
H         2.46391998046630    5.97371733351317    1.03588583686888
H         0.93449013719854    5.16404634595213    1.41206201938190
H         1.67281955057356    4.69401333475056    3.63080573509302
H         3.18064263699392    5.60571251304512    3.69844088925141
H         1.88493155957280    5.95000498962367    4.84182138313706

