31
CSD_code = VAKXOU | q = 0 | S = 0 | Stoichiometry = C9H10CrN3O5PS2 | MND = 6
Cr        2.96466403401253    3.12344990564111    4.62257715774072
P         2.69878200312320    3.86329565325107    6.85766552893682
S         3.52721976315439    6.61393520850837    6.41313261362337
S         0.75743457717256    5.95207393922860    6.73858313984787
N         1.94629102812464    6.90604299279236    6.41539261325399
N         3.79259203030063    5.15262638121864    7.25905534652008
N         1.19708213075001    4.50959467547269    7.18143489717669
O         4.19688347045361    0.41211710594184    5.04503494832539
O         5.68157845800113    4.41192599521960    4.40725911814824
O         3.22401252546776    2.33937646804354    1.74234954948775
O         1.54361126463838    5.55677746367178    3.57829927177357
O         0.20049765333455    1.93175382332711    4.58432581714497
C         3.74088212620109    1.46681131328283    4.99780726440195
C         4.65214479872004    3.92276266200711    4.53704324764204
C         3.13297019430626    2.63838080771849    2.84878177271223
C         2.12455087259336    4.67631128164427    4.03936977161052
C         1.25991352380063    2.36655667489949    4.66237680590495
C         2.89999577815787    2.76485569477385    8.35449121143311
C         4.34253812489352    2.27161403734910    8.37132746125925
C         2.54118746792919    3.47676945721388    9.65783573043050
C         1.92927285304392    1.61223011027878    8.11090510748790
H         3.85826788330585    5.32411361900694    8.25999148037478
H         4.59125268694090    1.79396605348782    7.42417273597824
H         4.48444451217915    1.54568382649320    9.17034108458782
H         5.03704562603766    3.09587628571592    8.52661329056725
H         1.56484445488420    3.95089933558115    9.57348257255425
H         3.28127236305655    4.22789724742213    9.93134499605984
H         2.49826233761126    2.75171339589532   10.46873101412418
H         2.18377809072095    1.08437921207395    7.19121408144942
H         0.91391058990666    1.99575246579683    8.01972314385555
H         1.96091677718404    0.90185690702014    8.93543722560220

