80
CSD_code = VAKXAJ | q = 0 | S = 0 | Stoichiometry = C33H28AgBF9N6OP | MND = 4
Ag       13.18411078853228    7.12547300176786   15.40259779487284
N        15.33955085471363    6.06433739674384   15.44060143821299
N        15.42068681093821    4.92447047782414   14.76354309839628
N        13.10458769490726    5.70131895105988   13.39774807470785
N        13.25713858513258    4.40600419716483   13.66636862337599
N        12.73150718000417    5.04737732768859   16.38032057036041
N        13.53509149996894    4.02373225993010   16.10710597061453
O        12.28456982169974    9.19419251744313   15.39124357818100
P        13.08483961060131   10.41790820099829   15.18199445868185
B        14.24300095216849    3.93236847896075   14.74712522635654
H        14.61696219062761    2.83442198002991   14.53123868162634
C        16.59759957784201    4.83773969847463   14.11405161691436
C        17.32199017489456    5.98355012660247   14.39826530900353
H        18.29896768659899    6.25339590539693   14.05561094678568
C        16.47938661049766    6.71987978918541   15.23334665841294
C        16.71162455651893    8.02990737702389   15.88613894686466
C        16.97725261283869    3.69316923009164   13.24812000037816
H        16.99578731734629    2.76780585036438   13.82047244863377
H        17.96219516583076    3.86569875232909   12.82399584294443
H        16.25718410902697    3.57593074518404   12.44073819355624
C        12.45897434013198    3.65645386039949   12.88218729495048
C        11.76174094395625    4.51389632604038   12.04868496727641
H        11.04160615381230    4.26921580950620   11.29627842416614
C        12.20437434315479    5.78497861256060   12.41916226584483
C        11.84013343639932    7.09275446708719   11.81903331544227
C        12.38003686802272    2.17618716844661   12.96301134855537
H        13.34424673642693    1.72529013701008   12.73604905856788
H        11.64346189858001    1.81057568984820   12.25352196201622
H        12.09075410055934    1.86897802974648   13.96591915044958
C        13.64826596739001    3.21012468921838   17.17455708969738
C        12.87009910104350    3.73697303392821   18.19179307903180
H        12.72296759035371    3.35543823749281   19.18044760959327
C        12.32395146924076    4.89523929368410   17.63731388831756
C        11.40959529272633    5.89200753189242   18.24756671622454
C        14.48877507080063    1.98626506415815   17.19539581786076
H        14.16758714718236    1.28498520211727   16.42783376216471
H        14.41094516416899    1.50697952650398   18.16693267239734
H        15.53010643023245    2.23989848743046   17.00734594146374
C        14.28080644011865   10.30220882787705   13.81456712194113
C        14.65331378582664    9.05188416005590   13.34765496008704
H        14.20848782235293    8.16247009493957   13.79623163033057
C        15.56570984737878    8.93387554872333   12.31565970907858
H        15.84678271238434    7.95500462455032   11.95691548946757
C        16.10850960486781   10.07290852785012   11.74502321580674
H        16.82349574453516    9.98570082300981   10.94071747242119
C        15.72592957551118   11.32633744858554   12.19593868307737
H        16.13936270774527   12.21394914568532   11.73980137757801
C        14.81025411303059   11.44465618590574   13.22512336875766
H        14.49061654547898   12.42095771469996   13.56256973395471
C        12.00781268753498   11.80966199204509   14.72090735933560
C        10.95768759206853   11.51315416885672   13.86134479189403
H        10.82662267910041   10.49184412412529   13.53420442051422
C        10.09777564494041   12.51573493412783   13.45260816917805
H         9.28003511134625   12.28826323941897   12.78491551658673
C        10.28695472326707   13.81327690966610   13.90209276459085
H         9.61574868802700   14.59759140828399   13.58429576841947
C        11.33193068132264   14.10762845780923   14.76284908781299
H        11.47274060260747   15.11881291877977   15.11631600291708
C        12.19588024870901   13.10756741791621   15.17439779685030
H        13.00787372948873   13.33086051436611   15.85284984399726
C        13.98177220994188   10.92432298016697   16.67814874729861
C        15.12086084043263   11.71746949894035   16.66063768448166
H        15.53400811028511   12.05492999379128   15.72105976352968
C        15.73899984532293   12.05090844951778   17.85258190444948
H        16.62960100100846   12.66251422575903   17.84261789968145
C        15.22493458824555   11.59431984086722   19.05582077521878
H        15.71559247505304   11.85409002340282   19.98244008173261
C        14.09198396646655   10.79702024392029   19.07123998939223
H        13.69790444186749   10.43323763999874   20.00859057595299
C        13.47008734433127   10.46087977950087   17.88267192517991
H        12.59581292086232    9.82605465340876   17.87009128078695
F        17.49946512971632    7.94822532094665   16.97693552335070
F        15.56313664571634    8.59550867500487   16.29957702409683
F        17.30855199808132    8.92639158368024   15.07912064075117
F        11.57251963826290    8.04411577862302   12.72667217228543
F        10.75882120407995    7.00650176957057   11.02782457010331
F        12.82534338252917    7.59610032513572   11.04098296334018
F        10.13039049991656    5.74804814109032   17.85391958844970
F        11.39440756757501    5.82231931034971   19.58875526888172
F        11.75541904794298    7.15536914773828   17.93556549364411

