65
CSD_code = VAKXUD | q = 1 | S = 0 | Stoichiometry = C28H35AgP(1+) | MND = 7
Ag        6.35131150423950    6.59291009306744   23.39360358255450
P         5.38991137412866    7.65660308716354   25.51238183723085
C         6.71888923183143    8.45718482922408   26.47860221050043
C         8.02011829412197    8.48848935778885   25.96038614957079
C         9.02535530006364    9.14330182951076   26.66664974671942
H        10.02378967533559    9.16200087817495   26.25484416657644
C         8.76257012975163    9.75536142150325   27.87767098298410
H         9.55529113857692   10.25253824333193   28.41404620813013
C         7.47739279464934    9.72810182242143   28.39202643024765
H         7.25864212211750   10.20700391295587   29.33393458296880
C         6.46730056747859    9.09090728198555   27.69580564212941
H         5.47232254407553    9.09197164354621   28.10606257721176
C         8.41926756668841    7.86769538996196   24.67446728969533
C         8.70520373162141    8.67929294406354   23.57611471877827
H         8.53809814628760    9.74450725473204   23.64966477177958
C         9.26316293649392    8.13944565174865   22.42758482256408
H         9.51385042282891    8.78740403918750   21.60063829133962
C         9.54639011783389    6.78468668625757   22.35820879327667
H        10.01607530042973    6.37276261714520   21.47819872735519
C         9.25846795440374    5.96390193603750   23.43894629750666
H         9.53805300076136    4.92069912719471   23.41151742449116
C         8.69382521385264    6.49611125056255   24.59332430818930
H         8.58205151287582    5.88020345740495   25.47714726849484
C         4.65377943375621    6.35522044056634   26.67968875481879
C         5.76655755987655    5.30376509465191   26.75500602971107
H         5.43550886577260    4.44678732552796   27.33789348250574
H         6.65301786833617    5.71741747992764   27.23512319999311
H         6.03791634726841    4.95604178529508   25.75095760757784
C         3.43310416003985    5.75379372559565   25.98159680154929
H         3.61672702355251    5.63275428341436   24.91125670838699
H         2.55735447522789    6.38217690216355   26.11695172076248
H         3.20783855097744    4.77682362648150   26.40516878093445
C         4.27861030682780    6.77312583487398   28.09788798707198
H         3.57745434498846    7.60247043784880   28.11040559282646
H         5.15649205313871    7.03177468468556   28.68281439778693
H         3.79514177217003    5.92874056963236   28.58767171205437
C         4.23269172265084    9.09743203740984   25.08465731516284
C         3.12840682366194    8.55107250827341   24.17701376598145
H         2.67583674891093    9.36606390635715   23.61537541449826
H         2.34296383239585    8.07152454290211   24.75302428866787
H         3.53226086171335    7.82434691854931   23.46640060390194
C         5.13738146646446   10.02666571759832   24.26781889019500
H         5.62003700083031    9.47256689376017   23.45378693168239
H         5.91233334684885   10.46651376972772   24.89361065164746
H         4.55290722786179   10.83510079264652   23.83370032828782
C         3.60637782975780    9.87649671157582   26.23518402289018
H         2.93733267610200   10.62960420099445   25.82105913156920
H         4.35655312039414   10.39446204164416   26.82529731850191
H         3.01529458800041    9.23369943065546   26.88201390652504
C         5.18241602145053    7.08097950771872   21.16399866530188
H         4.78322727967632    8.08732112045270   21.26140907565301
C         6.48479703023988    6.92671097660191   20.85285114721471
H         7.09989477596745    7.81195301199089   20.72536579076852
C         7.08767745802177    5.67851528692918   20.37231446466709
H         7.59164062178611    5.77446258154164   19.41890860143893
C         7.10910338397305    4.51484506608290   21.01131073970256
H         7.63232597431216    3.67407686756116   20.57375556219124
C         6.53217786225663    4.23646467194825   22.33066380966045
H         7.16952896765204    3.66804059899012   23.00143186587573
C         5.23092137859983    4.38848124813861   22.64689562477653
H         4.85578647547789    3.92524200594200   23.55562411503112
C         4.19380619958756    4.85450035872315   21.71723182045952
H         3.36149584684054    4.17084255050280   21.60839951883598
C         4.17232191044240    6.01801944062128   21.07553338961594
H         3.32265822571081    6.26731828856609   20.45261363304804

