90
CSD_code = VALCOB | q = 0 | S = 0 | Stoichiometry = C40H36N2O9P2W | MND = 6
W        -0.29149575787140    7.86966608677674    7.70931006242501
P         0.57863464073911    8.22959427745252   10.01747306106191
P         1.07475782129343    4.18561677898884   11.62013194827447
N         0.90272856023870    6.72701545098306   10.65423036008279
N         0.12413215585017    5.29064273810253   12.30760909357863
O        -1.45423348097680    6.96801547678478    4.95361656981180
O         2.05789455172302    9.14456762877528    6.06805911171220
O        -1.98515465548323   10.47551766669203    7.30136821257622
O        -2.72365345640957    6.70185112360243    9.31866103172581
O         1.68335965949686    5.44668009684889    7.61833805761072
O        -1.60636610371973   10.48237685501186   12.46795469000127
O        -1.54883778780676   10.37634111898765   10.21392456664739
O        -2.83866814080359    7.48940830041946   13.24759867622365
O        -0.94759903242709    7.26088192388968   14.43787597347423
C        -1.03223446372625    7.32025047415641    5.95921308494569
C         1.21087267807129    8.70741496774891    6.70328125524685
C        -1.36870066205366    9.54457655532835    7.54054497623930
C        -1.82623977178289    7.08032815194420    8.72288305897994
C         0.89022977806439    6.26347468284580    7.72765620639862
C         2.05232753050863    9.30804011485969   10.50919892254187
C         1.63458821312681   10.71690735524108   10.20507230592757
C         1.37882338705979   11.35947485500813   11.36684383331296
C         1.65951510636579   10.46986722439556   12.48167554885606
C         2.09995565805194    9.28032524574547   12.01564746689443
C         3.25719285445502    8.76663671536369    9.76048710388389
H         3.08129943261570    8.80096486942001    8.68543855334578
H         3.43671709776256    7.73044806159429   10.04299502254348
H         4.14037744963303    9.35844134683603    9.99659537114679
C         1.55356483535959   11.24365130991496    8.81688512950583
H         0.79031164884639   10.70585888270729    8.24802184991676
H         2.50554245631467   11.11928753135424    8.30067564397895
H         1.30350379151620   12.30152852025460    8.81753119123245
C         0.90514154978915   12.75665961424183   11.58034252895786
H         0.68379409656949   13.25425620668679   10.64013819423525
H         1.66493966919261   13.33490812242887   12.10642066001090
H         0.00719672682633   12.74969036013838   12.19682015122576
C         1.44023593940257   10.85880774161871   13.90222850464243
H         0.37054765530531   10.97552332405433   14.07851592641161
H         1.92570747137168   11.80816840571186   14.12364416068311
H         1.82138216252709   10.09730323419528   14.57649178790730
C         2.57883178089897    8.12870124367830   12.83071249403378
H         3.34766944476835    8.45827742711514   13.53056160661695
H         2.99606268818923    7.34867017461548   12.20112697709037
H         1.76071016863776    7.69536490863457   13.41060942672960
C        -0.58339781972520    8.64642656352418   11.35124419731621
C        -0.72369293572092    7.56947055901857   12.14996566744118
C         0.14285043985601    6.47638703227008   11.70132758115947
C        -1.29958660951861    9.92256345393151   11.44672216585635
C        -2.24697936634043   11.60938723424961   10.09448256196621
H        -3.19959339314383   11.42266249199495    9.59743797732915
H        -1.64038242111271   12.28325798850453    9.49018099939634
H        -2.41900207363645   12.03435828204208   11.08483168557750
C        -1.63971933863028    7.44475196275198   13.31085774254701
C        -1.72230678373958    7.13838153915048   15.62279721807226
H        -2.31124477953635    8.04398083401234   15.78167928831960
H        -1.01418039366608    6.99373027802284   16.43461874405584
H        -2.40080503030427    6.28628225860275   15.54597344655444
C         0.55953423529630    3.69146614265989    9.95425446741376
C        -0.70223368628534    4.08757242390835    9.52818043772257
H        -1.32084583902311    4.67419988474034   10.19242277418661
C        -1.14985029098614    3.73112535653657    8.26877632957366
H        -2.12357569913437    4.05303316881086    7.93051625431547
C        -0.34727146990183    2.95779807319990    7.44547829102164
H        -0.69267122639634    2.68450022371849    6.45975767434844
C         0.89804251403884    2.53549016955712    7.88302419682598
H         1.51880769899046    1.92850368521596    7.24075915742685
C         1.35723520624999    2.90022532292004    9.13570475892026
H         2.33470910934801    2.58315286516627    9.46985111392650
C         2.84612545962066    4.57514193839188   11.61851564429409
C         3.52538910999642    4.99011513276349   10.48131043239473
H         3.00868375011286    5.04070534625087    9.53523504388749
C         4.85908981192569    5.34859576604368   10.57911332987288
H         5.39335304236250    5.67003764091197    9.69700024670648
C         5.50695576100312    5.30350505231887   11.80356979683549
H         6.54646546457653    5.58739787933464   11.87316629656122
C         4.82242274929189    4.90254430477716   12.94043420420162
H         5.32618604275452    4.87552732056011   13.89521443300328
C         3.49097229799786    4.54053996050321   12.85050574156994
H         2.93740775473871    4.23327675486605   13.72850103925713
C         0.87910391217748    2.72563543291650   12.66222248789696
C        -0.14981017109584    2.69140861190649   13.59315899973403
H        -0.78666577325322    3.55751309045391   13.69172891112432
C        -0.32760854769004    1.56533823729301   14.37698050781253
H        -1.12423103177368    1.53470527307767   15.10552387188809
C         0.51554251588482    0.47613291999982   14.22655395135475
H         0.37559933466127   -0.40261805235397   14.83847369784212
C         1.54082610825929    0.50984334873327   13.29372211081938
H         2.19718607310532   -0.34040407796423   13.18099544067795
C         1.72388389702768    1.63263669515804   12.50826971340274
H         2.52661704390752    1.67073047826884   11.78454900901788

