25
CSD_code = VALCUI | q = 0 | S = 0 | Stoichiometry = C6H8N2NiO4S4 | MND = 4
Ni        4.52668495698987    0.00023891912524   10.52717182987188
S         3.66023683149421   -1.46534857118326   11.97061703085907
S         2.96956221215132    1.27461665884113   11.48481217805781
O        -1.12518220571396    1.30825319548986   14.86355526227244
O        -0.30048132404651   -0.76594363580796   14.97428400482036
N         1.64814740801065   -0.25249437145267   13.21378444665780
C         2.63824325979128   -0.16025838650442   12.33061532383325
C         0.76129695446101    0.83218001322328   13.53246233878142
C        -0.26759510155487    0.34969947160982   14.53325936193895
H         1.47226225322097   -1.12898963219848   13.69489289692034
H         1.31116262457461    1.68043256257058   13.95914922444608
H         0.25009289037582    1.20126237885081   12.63459457088683
H        -1.77879270798971    0.98632870859965   15.50556936379658
S         5.39277564924529    1.46566043364903    9.08334294818917
S         6.08338249540147   -1.27432572574209    9.56908397101622
O        10.17692235610991   -1.30855729106650    6.18888350749796
O         9.35243002234906    0.76573516625915    6.07839490254070
N         7.40437247115395    0.25257482801068    7.83959489907364
C         6.41459145626224    0.16049372207370    8.72313672964968
C         8.29097807944925   -0.83221601825928    7.52063880640997
C         9.31959380634970   -0.34988422180066    6.51948448189727
H         7.58017190920546    1.12902130046627    7.35836411335502
H         7.74086261153402   -1.68041576988609    7.09416812123720
H         8.80245310352241   -1.20133815138033    8.41833934683142
H        10.83032798765258   -0.98672558348749    5.54660033915894

