81
CSD_code = VALCIV | q = 0 | S = 0 | Stoichiometry = C42H35ClNiP2 | MND = 4
Ni        3.42225341961864    4.99514858689202    1.32913264890005
Cl        3.86066227653892    4.68018294082744    3.40183575221764
P         3.53989698522134    2.87173032327370    0.94951758693938
P         3.94802176493113    7.04809202465311    1.70049091551837
C         5.18663293417686    2.35624783682607    1.53431551856000
C         5.47781594588417    1.10554394973098    2.05994159665944
C         6.76412050342841    0.82656317595063    2.49002232354570
C         7.75728391709196    1.78765091672271    2.40198734076432
C         7.46867579529631    3.03989510220284    1.88207870571502
C         6.18777193962320    3.32039629118477    1.45103151023526
C         2.39052396253910    1.69478876698985    1.72220802223434
C         2.27496240136021    0.38656662238444    1.25800324282259
C         1.40319113279792   -0.48967858469656    1.87683036726346
C         0.63925508246838   -0.06892882551763    2.95460125603349
C         0.74663683788443    1.23282056319242    3.41389718035583
C         1.61886489601522    2.11367935916330    2.79928920703812
C         3.54074918766777    2.29923141348135   -0.78219091517517
C         2.31648973888285    2.18879329707029   -1.43666618572628
C         2.26880235262041    1.88585284777145   -2.78266939794051
C         3.44413247332166    1.69652379077481   -3.49220248515185
C         4.66438216574327    1.80744770099357   -2.84834979745521
C         4.71558896352556    2.11392112600405   -1.49987608878599
C         5.68179195320169    7.08229794682118    2.24300083773834
C         6.04212908627746    7.13178066180211    3.58385902491671
C         7.37509794316074    7.03787983784853    3.94261766462128
C         8.35195140241399    6.88441693125063    2.97284419613010
C         7.99586048891774    6.81631992054597    1.63494847257447
C         6.66569451142296    6.90752444139011    1.27138080083327
C         2.99562018847795    7.85996858271007    3.01783680472625
C         3.39712990651561    9.07889288529892    3.55316351415065
C         2.62085259173733    9.69252796791446    4.51824089508447
C         1.43950640616223    9.10270532072705    4.94115709373476
C         1.02879694420025    7.89788845095538    4.39561982578544
C         1.80466474596596    7.27931025884078    3.43270415192950
C         3.87539744872926    8.41342545112604    0.48057633425365
C         2.69152063266258    8.52964073856805   -0.24154074137243
C         2.52237928860595    9.55150493238189   -1.15492750196189
C         3.53582735607455   10.47553244776513   -1.35174363347778
C         4.70943958786092   10.37681510940734   -0.62408006911925
C         4.88099096092422    9.35283785986652    0.29125141998810
C         2.88902941369400    5.28705789828692   -0.43999523596681
C         1.51134415704251    5.25954254876316   -0.66003960220449
C         0.99471240888226    5.43299974277994   -1.93300965935584
C         1.84558335879705    5.62877460150028   -3.00674977682439
C         3.21285357521541    5.65404118511933   -2.80115904107343
C         3.73262413846680    5.48539912845048   -1.52827776178499
H         4.70251877876379    0.35816935020203    2.14846342127734
H         6.98954163465039   -0.14520574981181    2.90520967546895
H         8.75550907753453    1.56451183830711    2.74938873563778
H         8.23542118370813    3.79908653968752    1.82642551111458
H         5.93830114230938    4.30544216552299    1.06219699321426
H         2.86099250311421    0.06213553741146    0.40853087460763
H         1.31797275141879   -1.50515871814055    1.51719807711155
H        -0.04113218353791   -0.75803756601730    3.43345990017360
H         0.15006358010105    1.56188522077719    4.25206227330219
H         1.71836784953776    3.12973570812881    3.15749478504256
H         1.40248667460963    2.34365861953378   -0.87909571271751
H         1.31506892584229    1.80356831298666   -3.28299815880627
H         3.40806770702311    1.46563126408866   -4.54667744015908
H         5.58198280453144    1.65996683164472   -3.39964274383189
H         5.67079107158712    2.20761037958847   -1.00168851988523
H         5.27759842842239    7.22270880987295    4.34149109748056
H         7.65222198221945    7.07540477439249    4.98596268055119
H         9.39104235766278    6.80830926503883    3.25894254305985
H         8.75515072806335    6.68594369496203    0.87652065012000
H         6.37574432157969    6.84541412526053    0.22926462095679
H         4.31552271004301    9.53917059439547    3.21459477577089
H         2.93587385560118   10.63517241190585    4.94230826065750
H         0.83802990972925    9.58599357610828    5.69726375314340
H         0.10624141534542    7.44160873531495    4.72367674760745
H         1.50649935665893    6.32878034943860    3.00315302394684
H         1.90579530979667    7.80338426143184   -0.08250152345549
H         1.60237251346078    9.62716768614369   -1.71577779128369
H         3.41059365337708   11.27292448845023   -2.06951417736379
H         5.49710706444939   11.10222991103481   -0.76908031899765
H         5.80129513055436    9.28811891078487    0.85458100477648
H         0.82766496236297    5.09790762939717    0.17098259156809
H        -0.07580386033501    5.40928346183714   -2.08591987219518
H         1.44317661907575    5.75711954336562   -4.00134817837966
H         3.88323830539473    5.80316268899525   -3.63619794564038
H         4.80806856328660    5.50184127189273   -1.39383593175801

