51
CSD_code = VALDIX | q = 0 | S = 0 | Stoichiometry = C14H24N2NiO4S6 | MND = 4
Ni       11.98506588232098    1.34495682137499    8.42853466249462
S        10.00629690839286    1.47801221832435    7.42425030174556
S        10.65451819449422    1.36316076849746   10.20914568695993
S         8.16732715423549   -0.14349086184333   12.67202987310302
O         6.94552991663660    4.43947012889517    9.68133716159897
O         7.08572059489521    4.22652203191015   11.91121829816223
N         8.23651219234632    2.07930619158684    9.30128704486964
C         9.48663410887388    1.70212140635559    9.02540475981416
C         7.73117456457921    2.36108616842424   10.62008497053790
C         7.21867594150083    3.79833319907740   10.66036752236440
C         6.59961893800663    5.55515667166870   12.07677079436749
C         6.58040162453604    1.40559527928177   10.97787750889289
C         7.09018424600510   -0.01050687152180   11.20820994524025
C         6.91961892831129   -0.03853516451870   13.98829688168218
H         7.66185635984201    2.39667561248813    8.52895810838510
H         8.54158234943791    2.23313737157269   11.34692866300506
H         5.59717603474963    5.64684556729104   11.65458744325585
H         7.26054660077829    6.26268639876823   11.57356804523362
H         6.58448875693627    5.74007210278056   13.14733474263121
H         5.85266673957658    1.40091740281564   10.16236699287309
H         6.08518867837078    1.77506206491106   11.87693010277143
H         7.70359360501228   -0.33976964067176   10.37076543310989
H         6.26129568198269   -0.70588400592878   11.33896473013146
H         6.15993942057940   -0.79866137826955   13.82985604607583
H         7.44190604193264   -0.22624913241758   14.92004723604190
H         6.47651918874877    0.95275323016976   14.01164966080390
S        13.96395070104214    1.47305556106690    9.43305969513124
S        13.31565787670970    1.36334753065164    6.64794970808322
S        15.80572632040601   -0.14504198459030    4.18690843784753
O        17.02413010221213    4.43796699072374    7.18015551094157
O        16.88343081235420    4.22805954986230    4.95003417979718
N        15.73403729222308    2.07667789708320    7.55709179325684
C        14.48370540136734    1.69966428181132    7.83227982494335
C        16.23958997146454    2.36035957688408    6.23878485492211
C        16.75104401662679    3.79805282144776    6.20030828882580
C        17.36832573842651    5.55736133942810    4.78629878399385
C        17.39121804800036    1.40613097504807    5.88043380393104
C        16.88283533649797   -0.01057563078722    5.65063380283493
C        17.05372311667524   -0.04311468514143    2.87069167801749
H        16.30874658295259    2.39257348436980    8.32997869801019
H        15.42951112523135    2.23259319055836    5.51155715780109
H        18.36573834489180    5.65259730013938    5.21944420854031
H        16.70011699774266    6.26464866662125    5.28015183804641
H        17.39478426653210    5.73951135923896    3.71548297478432
H        18.11945881830465    1.40237520252464    6.69550230744548
H        17.88543160076845    1.77612218736036    4.98104295852129
H        16.26987881369072   -0.34017307717184    6.48829104848309
H        17.71235276511762   -0.70519610009272    5.51993199816947
H        17.81145612450600   -0.80518742732712    3.02912262702872
H        16.53103359079443   -0.22941133698905    1.93887645519064
H        17.49937758384639    0.94702874288253    2.84751474819507

