72
CSD_code = VALDOB | q = 0 | S = 0 | Stoichiometry = C27H33ClCuO9P | MND = 2
Cu       10.04676394546529   11.65947620710909   12.71546032425452
Cl        8.53708442732153   11.67634880724614   14.22284535889199
P        11.58021475928052   11.38797769427128   11.16541632172415
C        12.18955494320480   12.74062850344050   10.12774073948215
C        11.13804031778389   13.30056217130016    9.38800308797272
O         9.97001598957980   12.64125346788332    9.58013399625416
C         8.79581733973463   13.14453638161966    8.98907393636007
C        11.33163294313125   14.39796828367391    8.57528520833769
C        12.60336808188991   14.96974212669608    8.51399458165382
O        12.71614796356035   16.03590973078095    7.67228432040832
C        13.95034374636437   16.70419152960088    7.58250509439087
C        13.64445908022523   14.46236175578703    9.27918675880018
C        13.43771944529031   13.35630370658568   10.10406172258640
O        14.39453843931626   12.83553922928346   10.91396087241968
C        15.66764676638027   13.42646546009794   10.94929429268135
C        11.14867522557239   10.01208059948309   10.05655473395042
C        10.54333341067747    8.96102084397920   10.76125332854302
O        10.50530115765680    9.15774871705263   12.10304036051153
C         9.71013229236603    8.30776893824148   12.90372434682756
C        10.04761528495511    7.84889609059103   10.10686425343349
C        10.14949513849031    7.77842580429180    8.71893863387062
O         9.63874466516685    6.64754029322084    8.15685674478599
C         9.68013492314650    6.50377168486836    6.75862337609536
C        10.74389530307628    8.81004987977607    8.00368256201208
C        11.24515661206989    9.92817021462558    8.66785851031251
O        11.84727462785172   10.96355103135514    8.03236931328043
C        11.86778251971020   10.99708423210394    6.62935827634780
C        13.02381577422714   10.68562490007143   12.01684508869464
C        13.05496191861025   10.70409165355958   13.41611927566649
O        12.03427095829927   11.35265640041205   14.02559979670750
C        11.84109017743497   11.19616710168703   15.41735868496851
C        14.09958837467630   10.09447731374164   14.09326068415391
C        15.11891766430784    9.46730006593558   13.38091427824574
O        16.09547916380715    8.90469154848963   14.14651735966614
C        17.15834249095332    8.23836524513420   13.51123691422913
C        15.10401799808061    9.44750213221191   11.99115243498708
C        14.05264252084933   10.05728856368628   11.31577906817013
O        13.93074744390109   10.10938934426504    9.96956827399293
C        14.93698831319085    9.55540470485782    9.16558778458903
H         8.85042201136375   13.09921299270605    7.89640763442697
H         8.60384098740693   14.17513118810277    9.30153359595166
H         7.98793487705960   12.50507451853359    9.34075408256789
H        10.54570427305449   14.83994546935543    7.98659205722032
H        14.74043210528461   16.04504903803715    7.20755851689808
H        14.25272647925830   17.12356441870544    8.54743319735631
H        13.79436794898969   17.51530534102327    6.87286751104710
H        14.61472727915289   14.92751423822654    9.24268278336555
H        15.62274500886532   14.47031800111322   11.27747760225032
H        16.16906114308729   13.37246460701217    9.97628853773005
H        16.23500424433779   12.84874726559202   11.67832810592467
H        10.17652652582379    7.32400435166876   13.01606581459448
H         8.70608105797052    8.19686768834967   12.48766321653804
H         9.63499462874903    8.79889281148640   13.87319571945182
H         9.58455643197274    7.02725777897954   10.62620972225394
H        10.70911962330960    6.48965073595022    6.38406307808828
H         9.11933832195332    7.29762882636267    6.25464219585473
H         9.20987552706646    5.54448533344825    6.54801126054175
H        10.82183420871506    8.74550995354298    6.93172182463093
H        10.85831157507051   10.95477603528689    6.20602257750992
H        12.46914184555137   10.18332177011115    6.20750091767090
H        12.32411514826356   11.95153216833697    6.36860634910019
H        12.58854310590557   11.75816619944120   15.98494895168453
H        11.87289716168581   10.14270392898976   15.70728182693269
H        10.84478517148460   11.59399551972117   15.61644082132866
H        14.16472972423208   10.09307356101543   15.16813550296954
H        17.73837165946637    8.91636452614095   12.87627802053855
H        16.80437034583071    7.39246831451797   12.91303980091667
H        17.79461343381080    7.86806862084470   14.31360759751261
H        15.89567053390994    8.96517109227034   11.44318488718914
H        15.02039066549160    8.47180926656992    9.30782663140920
H        15.91002005929424   10.02198283216426    9.35521389949210
H        14.63859473895886    9.75930924738689    8.13830505878106

