49
CSD_code = VALDAP | q = 0 | S = 0 | Stoichiometry = C14H24N2NiO4S4 | MND = 4
Ni       17.17720074039022    5.31675277549126    6.93724549049828
S        18.48668000222334    6.59526882279853    5.67273190378189
S        19.17214774209355    4.78284489456832    7.77881970764574
S        15.18668993135119    5.88976322509494    6.12500120888242
S        15.86438624222108    4.12193093730526    8.27088966635655
O        23.44799854956485    7.16242098427326    4.03905636523295
O        23.58754053251037    5.90371116660673    5.88662667590127
O        11.34081270399340    2.55483494396837    9.12328974855658
O        10.75043831908969    4.31929055202082    7.87200721324633
N        21.00689387729200    6.12518895305690    6.40646205720057
N        13.39121773826440    5.07213118907343    7.89463155796038
C        19.71766582116404    5.86779683521693    6.59261325468062
C        21.52053817280062    7.03332885234863    5.41008804441329
C        22.96568951286232    6.62892256155467    5.15371250763239
C        24.80233481326577    6.85160247803784    3.72571820108393
C        21.40590697652824    8.50606649037340    5.88791332225562
C        22.42130424445811    8.80970654731645    6.98571198067408
C        21.53970635964092    9.47353612731495    4.71857670993052
C        14.65576778879715    5.02415513217052    7.48721894922800
C        12.85502686709872    4.37132725241679    9.03590672464152
C        11.52722673741668    3.75936638464927    8.60008042981379
C        10.11748880414036    1.90302441620942    8.79543195104541
C        12.62141597674856    5.33795218148095   10.22364034223667
C        12.01424060252148    4.59111634719303   11.40719423508975
C        13.93822720727562    5.99463852085135   10.62728211616950
H        21.70448682997469    5.62554734973596    6.94988177886372
H        20.94028558939809    6.92504799999481    4.48579098371874
H        25.46966080454612    7.25379760120272    4.49036913107045
H        25.00343708107091    7.31175730229094    2.76228984764628
H        24.93903085598138    5.77024658777294    3.67303304480089
H        20.39828266530992    8.60751138198808    6.30358810409855
H        22.34764907106009    8.08532193233825    7.79321103604012
H        22.23845154712923    9.79927415551585    7.39712831777349
H        23.43590335540074    8.78701543309425    6.59379435785546
H        21.44106187137457   10.49574006121952    5.07377239555149
H        22.50615538875978    9.36719635797785    4.23490839172336
H        20.76188126738166    9.29056612049282    3.98237867002255
H        12.72374428999914    5.60684511344085    7.35015134584130
H        13.55280025405331    3.58277624489317    9.33155492678448
H        10.06228649566242    1.72527733645420    7.72011986298916
H        10.12025458166458    0.96265270071594    9.33949720225275
H         9.26781354495065    2.51980324395934    9.09416951217742
H        11.92177797613762    6.11174250853173    9.88780545402706
H        11.02825947928421    4.20183135668497   11.16759848888498
H        12.65235268071948    3.76030219797625   11.69843139531177
H        11.91546621683293    5.26378567250845   12.25551111957030
H        14.36600646276179    6.55965346653784    9.80329968858877
H        13.77213643882264    6.67886155209991   11.45538901556691
H        14.65806898801629    5.24146775118106   10.93787556465708

