63
CSD_code = VALFET | q = 0 | S = 0 | Stoichiometry = C18H40P4Ru | MND = 6
Ru        0.93476769380365    3.79044042956462    6.52292959451812
P         2.45369262295430    2.05581597378155    6.68694172879663
P         0.24512506679873    3.88607325798547    8.69979906270551
P        -0.70860012096788    5.17204780454581    5.68794083385769
P         2.56822906685393    5.39409464133283    6.38444098078846
C        -0.24748500651551    2.31949064722722    5.67341345228571
C         0.56851765274212    2.84529856732868    4.70562912672884
C         0.53231438548377    2.40832982713584    3.40504212310469
C        -0.38470493968244    1.38968726666783    3.11009409644553
C        -1.20399670548081    0.86078818101445    4.08582637193799
C        -1.15101963371612    1.32281043363265    5.40826379123270
C         3.59259213846800    1.73472789627976    8.11332532503142
C         1.80118130802327    0.34548448300649    6.53273961629902
C         3.68820724888123    1.97123090126094    5.32517772103848
C        -1.53168868478709    3.46024123715162    8.90769847943524
C         0.30362457800680    5.41649703057797    9.72959475575826
C         0.91423386533426    2.72897665924890    9.96220748182737
C        -2.29534725452765    4.40545557242278    5.16887406459312
C        -0.32081674014263    6.01307932122759    4.09958116325994
C        -1.41917232515979    6.61414221506817    6.60184882727377
C         3.37026122812574    5.66569006549469    4.74630300987791
C         2.22173627748498    7.15978395557427    6.79069255318103
C         4.09791665023941    5.24133970039961    7.40147143476632
H         1.16671630998351    2.80809462254416    2.61773142146405
H        -0.44770375296665    1.01417202329221    2.09634365843861
H        -1.90243586159797    0.07428792161598    3.82865195854954
H        -1.80685998997030    0.88907351609103    6.15762775315674
H         4.44702056352032    1.14687370088901    7.77716071819758
H         3.94362203459998    2.66619265880565    8.55029637399737
H         3.05347865584775    1.17373861029184    8.87409833280103
H         2.60498382593449   -0.37210864141854    6.70347402391802
H         1.00707706828392    0.19321764043964    7.26330709545078
H         1.38576949465206    0.20925711853049    5.53587651578096
H         4.20327666979305    1.00999159282697    5.34489752114235
H         3.15711271105060    2.08547600876817    4.38081720189095
H         4.41519679164303    2.77523562521035    5.42845996858835
H        -1.82628910347832    3.47920189003561    9.95772991629191
H        -2.14199311399020    4.16041474501428    8.34011081179290
H        -1.68170903547801    2.46245346867485    8.49627399170403
H        -0.17425611870851    5.25182580924403   10.69583673754873
H         1.34762951610307    5.69094338695409    9.88236157339039
H        -0.19807848427645    6.22895918119641    9.20765790301120
H         0.35116173841554    2.81365001261243   10.89264464893073
H         0.83425218627876    1.71341753569611    9.57642711281300
H         1.96128052565306    2.96083904601348   10.14934457262191
H        -3.00197980359292    5.18294643492878    4.87498200026696
H        -2.10524538027911    3.74033438533492    4.32802853472816
H        -2.71016848071821    3.81743005815605    5.98596612176070
H        -1.21484091988542    6.49011912424435    3.69617273698996
H         0.45499487348358    6.76176851001525    4.24942861422636
H         0.04048785126466    5.25753222637465    3.40235633854487
H        -2.06836655646961    7.19151297482828    5.94281084302816
H        -2.00065633533839    6.24899061935052    7.44751873635447
H        -0.62447659020963    7.25482827779476    6.97744267678981
H         4.14512246141657    6.43051660549481    4.81154281019272
H         3.80379392439632    4.72906137070539    4.40269137369906
H         2.61299806068896    5.96870964062004    4.02627643034006
H         3.12487283713149    7.76021200676693    6.67530375910012
H         1.44845972846238    7.54615300257787    6.12956915149913
H         1.87148428782652    7.22400564643810    7.82016761281987
H         4.75862271443569    6.09273739758768    7.23426689058238
H         3.81550922387018    5.20033119960882    8.45374843879928
H         4.61976710000527    4.32277697791885    7.13996152403489

