78
CSD_code = VALGEV | q = 0 | S = 0 | Stoichiometry = C37H34Cl2N2NiP2 | MND = 4
Ni        7.50206058396235    3.50828400191711   15.09432458387899
Cl        6.01891322751447    2.13506373078971   15.64869869305470
Cl        7.66265196307407    3.02674698124204   13.05773081965396
P         8.82232397429151    5.09387757229363   14.58704747541342
P         7.58895442973911    3.89293823908124   17.17832186116268
N        11.19925871868192    7.88455642105380   17.26973745149430
N        11.23108971460104    8.59164765977573   18.39546120897651
C         8.83378024869863    6.46282884687341   15.85282047549750
H         9.32704011712297    7.34334594152601   15.43107473552974
H         7.76227634075061    6.68020053682972   15.92957924888961
C         9.17610148389247    4.72821371529206   17.68447048493199
H         9.28548172395383    4.61941216352771   18.76464577565856
H         9.96866905558155    4.13719780132657   17.20788645597256
C        10.89420610593759    6.48470981989425   17.31546159702209
H        11.29918740297484    6.10615900493409   18.25689309715097
H        11.38775884684109    5.98042973780931   16.48059490231002
C         9.36223918146629    6.19951892094337   17.27149389449374
C         9.14243512333867    5.66063588938427   11.89068642219965
H         9.79325786835865    4.79862170662689   11.89075080173613
C         8.89363452418180    6.34444796959381   10.71610639107910
H         9.36877374625873    6.02549130221525    9.80046935432564
C         8.02768170959441    7.42598223859048   10.70925965272349
H         7.82983699494376    7.95638091732865    9.78970610633794
C         7.40164462759453    7.81451469360103   11.88123350410999
H         6.71081271185481    8.64505362616867   11.87688731218377
C         7.64739767966240    7.13448320173093   13.06084900667514
H         7.13113259756444    7.43546149549851   13.96124425351026
C         8.53537243416556    6.06342952737295   13.07777826091348
C        10.83269771970541    3.22294045696726   14.74805140423662
H        10.01654819511300    2.56504925655747   15.04414779807243
C        12.13129962191091    2.75359011524317   14.66766436039234
H        12.35237784898552    1.72659807264197   14.91713259853378
C        13.14529056629982    3.60368784710331   14.25663031563023
H        14.15995507504912    3.24045696839644   14.19099036793527
C        12.86066681274525    4.91723561589067   13.91411869583126
H        13.65247454421571    5.57233034212780   13.58143144551896
C        11.56320424154291    5.38876507910125   13.99125041479378
H        11.33047639795080    6.40483217288772   13.70268811595976
C        10.54465861446639    4.54261511853616   14.41843313364965
C         5.46926913587916    5.60134285048190   16.78382716318617
H         5.55447757757570    5.26623142261016   15.75063839895434
C         4.52500966384617    6.54294757755782   17.15029047946440
H         3.86861320639354    6.97027169436501   16.40657324887258
C         4.42208094640545    6.93091720223361   18.47599450444577
H         3.68795140686359    7.66806859950733   18.76534777439798
C         5.24901453200315    6.36828474815325   19.43612095343485
H         5.15701017678159    6.66637539324428   20.46973944233512
C         6.19393596364163    5.42740071528025   19.07451463382464
H         6.83491817795682    4.98019074844579   19.82071724395285
C         6.31217303568003    5.05021079474479   17.74167439843836
C         6.29670946349007    2.16139051295642   18.91866705983602
H         5.40375778978702    2.69711660037695   18.63130879258327
C         6.22258797942820    1.09686834826105   19.79656285316666
H         5.26766368389461    0.80950272289479   20.21056328773977
C         7.36660768633477    0.39241435555445   20.13546822496417
H         7.30596007725807   -0.44227769220770   20.81792048386998
C         8.58637580279928    0.74933518619302   19.58580901482000
H         9.47682775415965    0.19065145947436   19.83491698662842
C         8.66759753258004    1.81505506002139   18.70753220289909
H         9.62022635902112    2.07332692929357   18.26611524881337
C         7.52463284246565    2.53828609880046   18.38283311712535
C         7.92165365219725    8.22038427998084   17.92501131003243
H         7.72714836764727    8.45107279803309   16.88992715033749
C         7.36900576548374    9.05780471975728   18.87857215370783
H         6.75375653812223    9.88638088145863   18.56011764074787
C         7.60888093196663    8.84697651210631   20.22194711742006
H         7.17720764999031    9.50103063721098   20.96444064485894
C         8.43087166180473    7.80105304850140   20.59971998090847
H         8.65637251175399    7.63718188411678   21.64298409892529
C         8.97800742909233    6.96593739326842   19.64582400398981
H         9.63759746725518    6.17972602198196   19.98094655374411
C         8.71190644042923    7.13724480002862   18.28949962952248
C        11.46963250690008    9.83758423670599   18.04122561681921
H        11.54710539473248   10.60565556764787   18.78420635739485
C        11.59936946047352    9.94638985828218   16.65031817322161
H        11.80126261962982   10.82661535572963   16.07563159141995
C        11.41695378843977    8.66411339247790   16.18959036464351
H        11.46204424516823    8.26380257573624   15.19684962116945

