43
CSD_code = VALMEA | q = 0 | S = 0 | Stoichiometry = C15H24IrNO2 | MND = 7
Ir        4.15630767795657    2.87486649434450    0.26303819917771
O         4.82959273821389    2.87489884861834   -1.67540282604462
O         7.05925615865230    2.87494977146435   -2.00305513960454
N         6.04127473620225    2.87487447386313    0.11415107387461
C         6.07651261454871    2.87485177217072   -1.30277035453170
C         7.26090690545790    2.87485230932120    0.90348858393174
C         6.89550179258391    2.87479160142804    2.39021063758031
C         8.07942097122282    4.13195168512542    0.57396757793737
C         1.91912439356671    2.87485973953838    0.20466054294404
C         2.38387744854731    4.02347798825736    0.89998984717541
C         3.07981594063656    3.58158056477034    2.09919989278360
C         1.03598100822584    2.87485037881104   -1.00048764992401
C         2.02298021083493    5.44064770431179    0.59673630107740
C         3.49556558052926    4.48653243971459    3.21455453974503
H         7.79854962679937    2.87477885382051    2.99532574194816
H         6.31206323353112    3.75929180211046    2.63006288916459
H         8.98806474605860    4.15126133779636    1.17027953171283
H         8.34317561466729    4.13064845131799   -0.47932686614727
H         7.49457931394879    5.02413143700470    0.78818893072943
H        -0.01177287216369    2.87491170794603   -0.69594779415027
H         1.21667035572028    3.75432515993803   -1.61240289367832
H         1.07413864244457    5.68816543162128    1.07636347067846
H         2.77990132353349    6.12717655019627    0.96805643307154
H         1.91177050806965    5.59298107728599   -0.47387364407257
H         2.61213718760080    4.80864489408740    3.76817554617586
H         4.16538251270372    3.98054903937570    3.90392202689195
H         3.99483818732111    5.37525705049211    2.83509587441199
C         2.38390140877740    1.72625167860711    0.89999809615061
C         3.07982251122404    2.16817248510576    2.09920970719832
C         8.07942231047059    1.61778053430535    0.57386584570934
H         6.31208382383704    1.99025986265452    2.62999577676504
H         1.21659027007346    1.99530892895844   -1.61232977350262
C         2.02303367569013    0.30907285594935    0.59675411124181
C         3.49558605289710    1.26324300630537    3.21457625022142
H         8.98806522169191    1.59841536441335    1.17017705953524
H         8.34317845039465    1.61917427031723   -0.47942801090524
H         7.49457636827131    0.72558430881265    0.78800637581863
H         1.07417596791181    0.06155481215131    1.07634861507418
H         2.77994942379661   -0.37743938664253    0.96811501636842
H         1.91187057731439    0.15671875250495   -0.47385763064461
H         2.61216142493990    0.94113262292583    3.76820433416611
H         4.16540021414907    1.76924449312979    3.90393266726262
H         3.99486574114649    0.37451684576945    2.83513108668196

