84
CSD_code = VALPON | q = 0 | S = 0 | Stoichiometry = C25H49B9Zr | MND = 12
Zr       -0.08426388171030    2.60481697846246    0.21499424464951
C         2.42009919309003    2.57891304513912   -0.19072739810512
C         2.20136748381357    1.50302634826647    0.71225356139440
C         1.42186954340200    0.52337811612212    0.04758655414935
C         1.17255690974868    0.98649910429732   -1.27878057723063
C         1.82986762811814    2.24272721003193   -1.44500291903706
C        -1.01815494368276    3.88637377445396   -1.78760053656197
C        -2.10412660996464    3.62134789984954   -0.90475221414080
C        -1.89752218411898    4.36923138323301    0.28849211299242
C        -0.68003088817837    5.08738150067308    0.14406605734173
C        -0.13952307383227    4.80634865654372   -1.14363553342768
C         3.30223273013537    3.75835406576940    0.12625523449442
C         2.97082446367178    1.32943363735859    1.99110027661772
C         1.19290403270648   -0.89162918223664    0.50482347687428
C         0.58923912335130    0.13088913297857   -2.37367258156872
C         2.32804594149578    2.74958822882738   -2.77531925316494
C         3.54022586447967    1.91429973568085   -3.20859646504015
C        -1.05259588459534    3.50580153401424   -3.24414256859992
C        -3.38495823417243    2.95789027284209   -1.33336541186049
C        -2.92225428947854    4.61409404353901    1.35940528909474
C        -0.16559578828443    6.12354785710802    1.10689083755762
C         0.85078892497252    5.70929692353335   -1.83487299826775
C         0.16124364645474    7.01387240812686   -2.25350966152501
C        -1.59843512601986    0.98283079922559    0.44666800670516
B        -1.32238295819610    2.86410245609293    5.45117497625584
B        -0.04104666182700    1.93017950926069    6.18299223688820
B        -0.95301584380309    1.24007640526415    4.85709056795607
B        -1.27973730856536    2.52166132127637    3.70814901469274
B        -0.57568777028332    4.00017359661696    4.32670240386441
B         0.28445927421358    3.63078627526299    5.83368311192931
C         0.76680957786293    1.13983008128428    4.85910116177997
C         0.14355890865678    1.51609961354480    3.52360824564715
B         0.30892927778969    3.04973980459276    3.09602106652506
B         1.24076526448595    3.84117002009846    4.27077596438338
B         1.57191340432276    2.36534338540732    5.53543653404926
H         2.90534686440620    4.34189687509780    0.96462397784386
H         3.41231161027315    4.41300087228582   -0.73557330840599
H         4.29925185179754    3.41539134034172    0.41045793245575
H         2.53259997009519    0.57110280756139    2.63275277111756
H         3.03930776466404    2.26291611742106    2.54687550444072
H         3.98873000852270    1.00791334218534    1.75311465817748
H         1.12219988113659   -0.96544470746444    1.58862371564907
H         2.03401490692467   -1.51562777924797    0.19089772240630
H         0.28971939752052   -1.31176785904888    0.06596407312442
H         0.54246016236816    0.67361378759003   -3.31542117354414
H        -0.41499864411666   -0.22142857881262   -2.12691917695940
H         1.21301570966550   -0.75231376373770   -2.52980296292003
H         1.56308214287485    2.67842908838147   -3.54935747862222
H         2.65007465172363    3.78806057686064   -2.70348631359184
H         3.92277127084490    2.26593483555046   -4.16454091542848
H         3.26733766304800    0.86732528043027   -3.30690466526211
H         4.33122263258713    1.99120084237153   -2.46696909467571
H        -0.22431844495705    3.94934297183810   -3.79057186175299
H        -1.97689807346347    3.87592615309807   -3.69369255708080
H        -1.03385098409170    2.42252944988708   -3.38619720564045
H        -3.19728337789222    2.06902017795385   -1.93592819636100
H        -3.96876149991280    3.65332823062723   -1.94259184998550
H        -3.99681839851871    2.67848519874380   -0.47885674510927
H        -2.45548262380595    4.85109359897441    2.31198956789412
H        -3.57252348905897    3.75281124780877    1.50025012946273
H        -3.55221936659294    5.45937170737563    1.07066729414133
H        -0.25043042462065    5.78996557254938    2.14084577601497
H        -0.74529205955632    7.04465642019015    1.01142099297123
H         0.87797057014970    6.36471020443584    0.90727764729205
H         1.69105866840009    5.95224320925438   -1.17899735456549
H         1.24434183621485    5.23901598926402   -2.73548788971761
H         0.85957534473835    7.66182203279294   -2.77934250054578
H        -0.21654216890690    7.54409262882707   -1.38453872829486
H        -0.67677093901491    6.79765612743887   -2.91157343925547
H        -1.29975794152834    0.15120570121012    1.09829736543422
H        -1.85553285203852    0.52919148320899   -0.52606258769847
H        -2.54422122171079    1.35060188886479    0.86694489406165
H        -2.31990635027554    3.11654553302181    6.02613458412549
H        -0.03401615296195    1.40599064119807    7.23741324785109
H        -1.55735980442206    0.22950960430662    4.89796509565587
H        -2.17861164117709    2.37869078707575    2.95422694393558
H        -1.01053748231212    5.08171101756765    4.11721421718796
H         0.38020717319409    4.42589877099114    6.70203682915631
H         1.13014579934724    0.11864610540904    4.94840399293555
H         0.11503105830329    0.71983737234357    2.77802744284520
H         0.36962323160082    3.30399522219459    1.84028996615283
H         1.87811580717094    4.83768802380502    4.15181502265711
H         2.48330688112727    2.16627592368589    6.26510355017907
H         2.11614133617489    2.91546198373994    4.48398827291935

