66
CSD_code = VALRAE | q = 0 | S = 0 | Stoichiometry = C24H36BCl2IrP2 | MND = 5
Ir       -3.92442360065031   12.19725219777328   12.70644665724195
Cl       -5.73900161966188   11.69517719705166   11.33260152962523
Cl       -2.04557578250071   12.39483412095737   14.06975591425657
P        -5.02716218677779   12.14050445505037   14.74852339053104
P        -2.93155776564178   12.74661301884795   10.68121508553065
C        -4.48201235646018   14.75628039482596   14.20717101174956
C        -4.74942993257834   13.87004120702281   15.27394655121043
C        -4.78464699423442   14.32605936410619   16.58074514473789
H        -4.97408901929867   13.64508310046402   17.39659086568125
C        -4.55375551178186   15.66512989253955   16.85598427378272
H        -4.57481073840208   16.01526628987801   17.87789730828147
C        -4.28695963537837   16.54908247967786   15.82387454117463
H        -4.09665831465091   17.58980672881700   16.04259724636862
C        -4.25138493867296   16.09859620215735   14.51634850662298
H        -4.01661708757711   16.78876371547372   13.71927383423591
C        -4.50396369885681   14.85526687401097   11.39733117931439
C        -5.27688924814740   15.99801937265062   11.17990118928424
H        -5.76403168523949   16.47075081244558   12.02017605637316
C        -5.45370280405383   16.51208324355155    9.90778386339628
H        -6.06372236091301   17.39140455934325    9.76001987729353
C        -4.86073735186623   15.89330260372219    8.81999269793713
H        -5.00453455456987   16.29039571916358    7.82553878635455
C        -4.08907077377845   14.75621452420314    9.00385274812348
H        -3.64709598834920   14.27456506449667    8.14484629863412
C        -3.90972912702111   14.23730457098706   10.27481796982472
C        -6.88432346295266   12.03338207800379   14.87572698082994
H        -7.15085831074054   12.13439276627429   15.93503995055755
C        -7.36527215289863   10.69105257227039   14.33512648517770
H        -7.09512915182252   10.60327681220494   13.28499137868574
H        -8.44885716872752   10.61854591357122   14.41660167005382
H        -6.92830585918360    9.85593527977022   14.87893763122786
C        -7.51706065439803   13.17854647428375   14.09209862615421
H        -7.24943353099109   14.14414416566551   14.51671449592058
H        -8.60141590523047   13.08261438638089   14.10822031556127
H        -7.18678670591863   13.15178475743346   13.05557978646189
C        -4.34633603203392   11.06532084775143   16.11927171009061
H        -3.46879684998453   11.61668444520214   16.47958365684964
C        -3.86541976294441    9.75390779769200   15.49623320173592
H        -4.69303852201834    9.20390915948588   15.05056121913602
H        -3.40120618187780    9.12221581788941   16.25217319798259
H        -3.12469426623641    9.95380110082303   14.72354555869758
C        -5.28074880202578   10.78399293191197   17.29234830423366
H        -5.67929533267651   11.69465097112552   17.73268692818920
H        -4.72738408401492   10.25367653111298   18.06689635552363
H        -6.11523904770244   10.15531769506859   16.98998492383439
C        -3.12694668632081   11.58509649724460    9.22845274349480
H        -4.15955557765376   11.74712306060037    8.89479834646013
C        -2.17826831335303   11.79911960017013    8.05267645459027
H        -2.19978630761074   12.82148484342722    7.68338094962190
H        -2.47427437024558   11.14281616840394    7.23473609239366
H        -1.15369472087096   11.55325297208392    8.32262945415591
C        -3.01158038924511   10.15234759305487    9.75112063249465
H        -2.02325239759035    9.96485456082022   10.16842655743863
H        -3.18524590472783    9.43940448167150    8.94648534579750
H        -3.75565857824365    9.97333401722148   10.52572034313478
C        -1.19923691802622   13.42811399431098   10.57550244109907
H        -1.01453062452663   13.70455855854156    9.53009566070839
C        -1.08643160115829   14.67460664099337   11.44702008591440
H        -1.73693400364315   15.46940232954001   11.08720711966790
H        -0.06036904204941   15.03847516482737   11.44076660416090
H        -1.35994380204936   14.44057206491553   12.47395277371662
C        -0.19701362021848   12.37161991496894   11.02804301968358
H        -0.39097605904254   12.10604865239143   12.06501180110399
H         0.81769672845229   12.76096474019094   10.95897388868228
H        -0.25618585358387   11.47108538722475   10.42006236600077
B        -4.35484709685610   14.17236854426532   12.77888241520432

