76
CSD_code = VALTUZ | q = 0 | S = 0 | Stoichiometry = C36H34Cl2NOPZn | MND = 4
Zn        2.11513266006593    3.76946904783267    4.70472836657661
P         4.72111715381499    2.55466780845278    3.50501245858051
Cl        2.55059434398873    5.76851575262401    3.87623288842234
O         3.83693432566202    4.07715142251502    6.24887299637659
C         3.73785839368589    4.88907732281405    7.35147709170073
N         3.24390735690065    2.27569190659250    4.04788279430396
Cl        0.40431612978268    3.44506364991425    5.99478614321708
C         2.75728628890217    4.83672252695825    8.32343870005407
H         1.94834875362021    4.12723487979359    8.25972482549384
C         2.85129527100652    5.75600571476186    9.35432573116560
H         2.10060984058736    5.75276478868165   10.12942939820649
C         3.88528538012185    6.68747103600363    9.41022047934452
H         3.91796414455498    7.38908789220104   10.23005511425058
C         4.86158914878095    6.73568782142263    8.43433411153434
H         5.65763291118160    7.46292948921591    8.47359629246977
C         4.78787483882980    5.82277933858494    7.38992728023716
C         5.57573260714217    5.56481798723220    6.21288468700127
C         6.71152591247983    6.13797565382533    5.66042565734227
H         7.19684723001558    6.96807422600142    6.14917112155681
C         7.19549474467158    5.62937728543820    4.46791366735282
H         8.07291204882497    6.06557501168817    4.01548137748980
C         6.56457068166297    4.56709290973627    3.83803183579261
H         6.95302658469867    4.18596991288002    2.90319892304067
C         5.42321834675525    3.96997144234134    4.37276163605271
C         4.93644463989245    4.48631122713437    5.56615189429760
C         5.81977279299814    1.13034022933154    3.75424173129185
C         5.46963494574948   -0.07550652297907    3.15122948304394
H         4.57032374825193   -0.13590955489033    2.55404072573244
C         6.26961647740860   -1.19065440802264    3.32304082218974
H         5.99434349625995   -2.12497252960234    2.85710490827097
C         7.41972446620362   -1.10713907528551    4.09233076570006
H         8.04463401019155   -1.97768991497420    4.22379169623024
C         7.76474438590750    0.09015748518176    4.69846717486989
H         8.65763532698153    0.15260425834328    5.30239372183009
C         6.96609600141048    1.20832480445711    4.53522300117394
H         7.23238945810961    2.14263117375545    5.00932741054219
C         4.86579174284324    2.96618757719700    1.72842164413919
C         5.57338840316743    2.18746048457196    0.81968812570698
H         6.11648630537553    1.31507739075154    1.15490171231419
C         5.59197257664267    2.53843411275574   -0.51911906478759
H         6.14042389568276    1.92951549178134   -1.22304894578013
C         4.91073451485201    3.66247898383735   -0.95551794570168
H         4.92442805002554    3.92739380263056   -2.00230884966075
C         4.21821426000869    4.44922066225081   -0.04840989000506
H         3.69495124948507    5.33248694698123   -0.38204278472736
C         4.19443681737475    4.10583250729631    1.29028190056693
H         3.66372451845267    4.72277354871801    2.00384821001200
C         2.69405895364107    0.96051476092722    4.00132327810741
C         1.89775449553269    0.57719660301141    2.91682279325095
C         1.32837267690238   -0.68843680293476    2.92027335089266
H         0.70525720779118   -0.99405347848441    2.09344324704313
C         1.54170822494978   -1.55909076209057    3.97074439011154
H         1.09029548915987   -2.54018161836405    3.96086773402961
C         2.32035091809116   -1.16584323373344    5.04165065057347
H         2.46446707544620   -1.84442245123265    5.86778366361199
C         2.91046940441991    0.08959063669297    5.07789976652859
C         1.62277182857900    1.52697592040949    1.77529827045912
H         2.22555087203017    2.43083665866516    1.91683543564962
C         2.01113766286572    0.92295327831412    0.42495329499516
H         3.05609575006397    0.61565451250716    0.42753284170198
H         1.87817861727812    1.66182337084110   -0.36255682296355
H         1.39702676509164    0.05744966241645    0.18928347313425
C         0.15100974520234    1.94597573590539    1.79063935626698
H        -0.49934230945295    1.08652515888992    1.64501614661180
H        -0.04243949630922    2.66811007317167    1.00031276991534
H        -0.09734970640360    2.40532772791203    2.74716158494649
C         3.70724828298369    0.51712124573743    6.28662839916428
H         4.29569391055129    1.40380849591861    6.01741857332742
C         2.74712320484874    0.90543139277931    7.41396425419381
H         2.05263806895677    1.67014085772748    7.07641717522565
H         3.30221392062318    1.28575466002558    8.26952156007626
H         2.16874766480308    0.04003725602388    7.72998949449639
C         4.68057610180269   -0.56019998229027    6.76702123670749
H         4.15002966318215   -1.38898172425173    7.22869961755374
H         5.35549838868435   -0.14101176464948    7.51080228509814
H         5.27406943767145   -0.94663969857812    5.94190115447566

