28
CSD_code = VALVUB | q = 0 | S = 0 | Stoichiometry = C10H11AuBr3N3 | MND = 4
Au       -5.07090435895794   -5.27454002408201    2.61205726035520
Br       -2.79904797439022   -5.44262091850104    3.52915345653738
Br       -5.63459543725829   -3.44861168876947    4.07970124494533
Br       -7.21941484468631   -5.08279774082111    1.45262587160769
N        -4.50972540759000   -6.98884663100748    0.15557285386568
N        -4.49471052604751   -8.13821919775596    1.97942014580932
N        -6.87909776793385   -7.94537961953283    3.42601982254358
C        -4.64475087083129   -6.90292006995659    1.48389936815542
C        -4.28159928696774   -8.28921626495517   -0.19102659291976
C        -4.27275302471592   -9.01169425332080    0.95692179122727
C        -4.61703394694069   -5.89719931123508   -0.77474722653578
C        -4.54254805662163   -8.48624961615209    3.38145560466177
C        -5.71714646489542   -7.81377271661092    4.05717347856137
C        -5.57939711917945   -7.10294214144998    5.24412586430765
C        -6.70538383614366   -6.48557560087896    5.77178684836627
C        -7.91210967307158   -6.60630524484190    5.10231137051707
C        -7.94609949311038   -7.35619605668318    3.93486669247276
H        -4.14640353402564   -8.59343897499122   -1.20796583750497
H        -4.12656811655616  -10.05891587812631    1.12017036784697
H        -4.08898102197838   -5.02286753062311   -0.39347220462899
H        -5.66553589914128   -5.63095134073140   -0.92740527186005
H        -4.17811271603232   -6.19154480747478   -1.72537441814121
H        -3.60543699405692   -8.18910144871916    3.86481515802141
H        -4.65145883505483   -9.57154829077073    3.45197536337119
H        -4.61892788843997   -7.02091406191804    5.73044606776592
H        -6.63020108635779   -5.90104859630529    6.67610961364446
H        -8.80211737090644   -6.11954494996956    5.46666896823175
H        -8.85663844810413   -7.48003702380497    3.36531433875712

