133
CSD_code = VALYEP | q = 1 | S = 0 | Stoichiometry = C60H66IrN6(1+) | MND = 6
Ir        8.89440041567088   11.63940465759982   14.55996884011288
N         7.56582637968430   12.92396398241562   15.34379273232636
C         6.33287945229095   12.60502126945022   15.73614094185452
H         5.95616049472331   11.64448340795866   15.41322613844706
C         9.96109487962549   13.36982522359258   14.34979834043546
C         5.54620286201678   13.43697779004387   16.50621742764950
H         4.55247595236256   13.13325328593611   16.79231235067917
N         9.41656846666404   11.28930761115282   16.71863254420280
N        10.23322842367167   10.30183106004199   13.88533284406319
C         6.06532231339088   14.66528064289217   16.89644645435360
H         5.48510012783659   15.33878310514582   17.50754323026922
N         7.69656774167267    9.87317840159686   15.16892261934165
C         7.33312594950192   15.01129661421622   16.47758143687116
H         7.75123478739234   15.96278165869571   16.75995732016809
C         8.39938628823794   11.64576295024158   12.57726308340999
C         8.07325820144349   14.13028528297806   15.68647380656158
C         9.38855181733692   14.40460099246675   15.12705126958845
N         7.50877064503318    8.17049645324248   16.56028483296724
C        10.02586951468692   15.63577288431926   15.29657768726801
H         9.57201035800241   16.40837375960678   15.89796564412219
N        10.47048565301463    5.31773692409411   14.39002803081398
C        11.24079453108055   15.88361442254029   14.68989587153761
C        11.78112509644420   14.88717008876775   13.88543239853920
H        12.71554792271548   15.08443681409950   13.37873617636291
C        11.16677420574518   13.65446221972461   13.70013160082977
C        11.83689968753347   12.68094780372514   12.77370868070155
H        11.10641692190785   12.22530316030099   12.11178122541361
H        12.33907885717289   11.89341875921041   13.33340721593748
H        12.58309124549954   13.19037731508797   12.16955620209587
C        11.94513442696560   17.19482111393662   14.85157108148395
H        13.00446130506334   17.04045202084991   15.04657756304100
H        11.51729764764181   17.77190678255764   15.66709790748661
H        11.85841581507887   17.77974456296974   13.93632258636537
C        11.21360827947491    9.77183836141763   14.61670277749250
H        11.35342003412097   10.17810607476555   15.60961736079888
C        12.04522658174658    8.77128596340836   14.15543929998218
H        12.83258559901245    8.38572057341643   14.78261085191250
C        11.84775170526257    8.28503442392525   12.86970818631798
H        12.47925207103567    7.50613225868744   12.47430151659212
C        10.83325406737357    8.82537255725466   12.10729256914108
H        10.66493404618496    8.45866801420845   11.10992155927260
C        10.03502105511717    9.84557473243800   12.62680594697462
C         9.00649940985773   10.56690475064659   11.89325020296204
C         8.68353908707643   10.26667952521063   10.56959289480757
H         9.15229417330646    9.42941613855720   10.07706483978915
C         7.77082966262480   11.03811233082765    9.87724990560044
C         7.21493888931018   12.13169283613066   10.53085791626798
H         6.52663271718239   12.76367193179132    9.98733952983188
C         7.51452583334475   12.44882738823756   11.85054569869238
C         7.39127996537920   10.72175404760707    8.46337563666424
H         8.14631641090664   10.10418452939395    7.98399414510805
H         7.26672819798240   11.63456299011170    7.88603780672686
H         6.44387961902446   10.18236073254074    8.44064287377213
C         6.87434831902263   13.67346288973720   12.43879923585287
H         6.44708376006195   14.29078959908516   11.65300543211778
H         7.61154176631885   14.25987488350623   12.98009180392680
H         6.07472040583825   13.40233617404252   13.12649693882535
C        10.08983116767294   12.13570967292440   17.48297490841010
H        10.59877407800419   12.93618914401340   16.96409982023729
C        10.15370601734468   12.02366775423157   18.86101014301483
H        10.72058317413662   12.73312577810269   19.44027877196555
C         9.45332244746227   10.99097086838482   19.46699295566983
H         9.44415807796094   10.88497139120204   20.54078967541879
C         8.75934788418834   10.09549712687034   18.67474811091967
H         8.18503884413435    9.30937191709202   19.13394867081573
C         8.77785375171721   10.25300747086363   17.28681436373384
C         8.04939198635173    9.40740965822030   16.36231741571717
C         6.75492541530450    7.88431556655534   15.44886988515771
C         6.88303981596703    8.95861611268975   14.59315525727609
C         5.91343615475232    6.66872663137840   15.31056363042129
H         5.29273173402611    6.76412473332394   14.42406077952009
H         5.26364395697478    6.54872506007465   16.17758608770533
H         6.50576917259937    5.75945622086381   15.20187704022590
C         6.25814292423194    9.16722872454691   13.26259372938971
H         5.23915777199675    8.78658445244829   13.25346232158327
H         6.82759652534467    8.65193112943356   12.49018127534799
H         6.25400376178777   10.22570565227275   13.01876800030528
C         7.87156340720661    7.18699898493810   17.55546780335023
H         7.40347095972430    6.24604631632681   17.26588983034306
H         7.46454807151878    7.46276539943971   18.53317040844281
C         9.39184568417344    6.99295546260174   17.65817780127106
H         9.57032716856636    6.12387788349137   18.29357345681277
H         9.83894243630913    7.85796427420759   18.15151806388731
C        10.09039075402886    6.79609678390657   16.31245971662023
H         9.84469525755417    7.61523675832438   15.63195469836927
H        11.16919525526517    6.82954898059768   16.47620920349231
C         9.75659548349393    5.46642034447152   15.62488112721488
H         8.68790349844611    5.40326409062053   15.40713280198327
H        10.01873306127957    4.63431538103438   16.28635535751163
C        11.72880003185158    4.76791512571890   14.25693523771218
C        12.61462395178397    4.31643190084035   15.22197083295200
H        12.37963902447213    4.36048091660062   16.27558269954946
C        13.82166492333670    3.79574511406381   14.80059755237360
H        14.50696363479800    3.44176500435910   15.55507223128828
C        14.18455418042344    3.70818835911853   13.44993761577652
C        13.29279884414530    4.16833844634688   12.49487095538828
H        13.52077816883970    4.12397898940748   11.44315787882319
C        12.07055613351835    4.69606659017654   12.89066022187328
C        10.95426578655235    5.23821214709310   12.16520110010523
C        10.69241005366533    5.40951295385209   10.81572554175749
H        11.43177422299731    5.09227584742912   10.09701047311520
C         9.48811768389142    5.96681066417796   10.40352395331715
C         8.57506220320828    6.37164272631877   11.38061150341617
H         7.63937128732319    6.81812038542903   11.08593175300363
C         8.81189127015225    6.21417372751922   12.73501099120384
H         8.07607599906360    6.54748711141359   13.45073985471408
C         9.99861175312946    5.62407299583879   13.13315148571644
C         9.20143850753778    6.09201673407816    8.91321966683390
C        10.27445398145838    6.96683573689314    8.24863074925000
H        11.27040388338543    6.56106067134679    8.40233770534420
H        10.25432906934892    7.97870897432457    8.65030014580787
H        10.09551515122031    7.02535888795018    7.17743729228011
C         9.23227081481446    4.68817798054142    8.29106540451462
H        10.21099363864658    4.22880738271581    8.39519502987037
H         8.99354865159397    4.74257844617726    7.23141474052481
H         8.50115383256904    4.04531074656255    8.77663178480250
C         7.83007680320231    6.70718610596966    8.61933332655277
H         7.69164593023106    6.78008693955787    7.54278302744499
H         7.74229957550597    7.70746172471084    9.03687002327456
H         7.03149746469536    6.08467942492632    9.01630916319491
C        15.53492902040943    3.10707223233063   13.09015246530937
C        15.78285338146107    3.08079658911603   11.57952861484384
H        16.75767665847541    2.64090102526464   11.38135887077205
H        15.77875502793659    4.08556017652145   11.16268873612072
H        15.03475204199053    2.47769560069746   11.07029016588487
C        16.64932800665170    3.93831118126093   13.74170542237471
H        17.62180027044865    3.52944978197019   13.47767650396042
H        16.56575205707111    3.93853040663487   14.82498202652197
H        16.60348210253066    4.96886431441531   13.39472030786445
C        15.59291286349351    1.66269168523846   13.60705446837092
H        16.54258097936653    1.20712989153139   13.33633673592065
H        14.79036893098213    1.07373452334274   13.16788554758674
H        15.49348645861291    1.62131137613021   14.68813606593477

