82
CSD_code = VALZIS | q = 0 | S = 0 | Stoichiometry = C38H38ClMnN2O2 | MND = 5
Mn       -6.24691797912384   18.90173703742416    7.98848917507408
Cl       -7.58929193762860   20.18927381521644    6.81835334763199
O        -6.33098752096075   17.58921376188599    6.78298047027790
O        -4.52234897011173   19.16133420051742    8.11015986133691
N        -7.76080207844473   18.21855732624815    8.89604659097819
N        -6.27163690624864   20.29604072841511    9.50083583041457
C        -3.58571899865950   15.06819129472220    6.54012640407809
H        -3.20686703164703   14.12708424740057    6.13862982591508
H        -2.76790715843536   15.79063778788968    6.54467570907223
C        -4.73063058861722   15.60257039323807    5.60679935287629
H        -4.62051024546202   16.68081593487670    5.48577966428543
H        -4.63579780185098   15.13238027862776    4.62710000416932
C        -6.08828199906127   15.33416288975538    6.19816396741996
C        -6.70487886475709   16.36760937717663    6.96063910586106
C        -7.73725527269870   16.03334413095702    7.89626789151370
C        -8.04925210341596   14.66550464603914    8.09855905368155
C        -7.60860352992692   13.74588213439478    7.16884678234604
H        -7.89933758358556   12.70988017274784    7.26653230107564
C        -6.65090349781090   14.08120351299725    6.21437388694884
H        -6.24632826653349   13.30727132745097    5.57822852892316
C        -8.49671341941150   14.14542775915796    9.44429960013460
H        -8.59087125970370   13.06127726703582    9.36294535780061
H        -9.45714429428385   14.53106634440952    9.77925540309187
C        -7.42738300522421   14.47312037053258   10.53627287121661
H        -7.66042864628178   15.43614022922739   10.99415921366914
H        -7.47968111822431   13.70406490999236   11.30980411691539
C        -6.06249394657371   14.54322032587920    9.91267349548265
C        -5.41868528671191   15.76201727632613    9.72879232831069
H        -5.74080887312501   16.63596526557930   10.28357399692254
C        -4.45024625808894   15.90710935324664    8.75133052792791
H        -4.02530689803725   16.88429070389471    8.56529331763760
C        -4.13020929129879   14.83973973033211    7.91965472788541
C        -4.56960032807520   13.57481972531401    8.29636898294972
H        -4.24232133131372   12.70819521997745    7.73963764043680
C        -5.51842449824012   13.42601064609006    9.28812989687242
H        -5.92033825314712   12.44579297688610    9.50034179309044
C        -8.37617761395810   17.08613029792737    8.63781253569218
C        -9.83343425727740   16.91611265606197    8.98591989057555
H       -10.37807899930085   17.80038158180697    8.65423879520978
H        -9.99503708035065   16.80209064333262   10.05831215189747
H       -10.24327526536853   16.05583962205572    8.46718075567039
C        -2.68231748049920   19.56470289867254    5.41905391115590
H        -1.97361845062431   19.38528291465012    4.60899635055527
H        -3.57770012566956   18.96865049203010    5.23786243741482
C        -2.02814766588801   19.10704308477375    6.77162476746156
H        -0.94407637585801   19.06814527299657    6.65470469502980
H        -2.38579446882019   18.10373765796846    7.00868136565497
C        -2.36014345010165   20.06141015356663    7.88552306344116
C        -3.67039443439588   20.11064152538212    8.40056775629984
C        -4.09319432383027   21.23482686128668    9.16210807174782
C        -3.26444083256728   22.37375638411966    9.20253729709176
C        -1.92458198254557   22.21143476130208    8.88473459823632
H        -1.24638399441621   23.04177214488387    9.01050003844449
C        -1.47502414012695   21.05648473328894    8.26675466107276
H        -0.44267685590479   20.99037133957917    7.95523703722248
C        -3.84625588030565   23.76225437618107    9.26278645783511
H        -3.33405469683975   24.37999110289620   10.00317830230929
H        -4.90102411491549   23.70858090690324    9.52020512894977
C        -3.72925506439344   24.46453307523962    7.86442820559532
H        -4.61173136150889   25.09110869112830    7.72614333448100
H        -2.84934378467517   25.10934951730509    7.85594982465548
C        -3.60381842086192   23.44682498572752    6.76543481808182
C        -4.63699709803242   22.55518681202752    6.49780476365871
H        -5.63586281845393   22.74464915903562    6.86262666349444
C        -4.37047529017698   21.35190082212430    5.87406450349697
H        -5.16738006366028   20.63004405720303    5.75576885556195
C        -3.06993163333390   21.01118877064278    5.51791791819981
C        -2.11032806280446   22.01680321365143    5.52915375285387
H        -1.11787166164704   21.81821801026470    5.14947407292180
C        -2.37794700416330   23.22379247083641    6.14745900041588
H        -1.59012210539098   23.95884451086532    6.23934190728479
C        -5.35313108572353   21.12955452599872    9.87503803130422
C        -5.46484482251701   21.87415563631452   11.18003473254199
H        -5.64486627098740   21.16396253105597   11.98847808322676
H        -6.30352297080687   22.57002724242598   11.16486588512533
H        -4.55083456212286   22.41522918493714   11.39906052376668
C        -7.43950269644173   20.13785123591062   10.34796380703567
H        -7.12927405939109   19.67872852948148   11.29752782862856
H        -7.89765168596293   21.10841139883805   10.56746588169854
C        -8.46658632868838   19.23359297146528    9.66315301981907
H        -9.06334029984622   19.83224488510851    8.96081739975739
H        -9.12193331606328   18.79760324888754   10.42298609319488

