51
CSD_code = VAMBUJ | q = 1 | S = 0 | Stoichiometry = C20H18CoN12(1+) | MND = 6
Co       12.60705366404187    0.65507148889367    2.13696790964320
N        12.04000055795187   -1.16760294188076    1.77649238961367
N        11.41501720911112   -1.51028015003312    4.02801411262489
H        10.88949627228410   -2.12627523784647    4.63550185301464
N        13.15667785500992    0.05867722318588    3.97674904087831
N        10.78152454027300    1.16525616003419    2.80798730516538
N        11.72468346929424    2.67882963776695    4.33058499679690
H        11.52735138897554    3.24534114353674    5.14594284918407
N        13.18196392762644    2.47840787201885    2.48317672043284
N        14.31971168915925    0.23795289983619    1.55735602658292
N        14.85765635273358   -0.80532869052414    1.59491166439728
N        15.48508517326741   -1.74783789556051    1.58815839397418
N        12.05320819766660    1.15220480526567    0.43712525163651
N        11.66662654049232    2.20438285188728    0.08687950349721
N        11.26641863653681    3.16096597002713   -0.36771565135652
C        12.12339472340056   -1.65090149742718    0.52893139489299
H        12.62088015134975   -1.01728502469300   -0.19025855777873
C        11.59562631135786   -2.86637422758002    0.15154834424428
H        11.69761028979805   -3.20244023526711   -0.86624316956925
C        10.93135494298894   -3.63165779535778    1.10210928219126
H        10.48902825570866   -4.58054052640741    0.84386135377646
C        10.86637204765788   -3.15809246864925    2.39467383770452
H        10.38477682738456   -3.73061344551326    3.17219890420468
C        11.45670540538110   -1.92963344880538    2.70759784941800
C        12.37751511577815   -0.76815833536498    4.67856525483344
C        12.51553708236226   -0.91979548664760    6.06414192049540
H        11.84195930700749   -1.57039569684534    6.59976291119754
C        13.53395851586717   -0.25924540170193    6.71377827440375
H        13.66495804714077   -0.36655912781222    7.77876222128598
C        14.41051401866330    0.51564286214312    5.96006733598877
H        15.25414343330606    1.00678088703494    6.41444541157009
C        14.18108171353179    0.64434580534504    4.60856937109202
H        14.84794427096338    1.22808244662788    3.99058985872571
C         9.68314677386101    0.57753650815599    2.31835223285149
H         9.80610758686172    0.04345329394664    1.38722311664188
C         8.45124660950808    0.64579464797088    2.92952858040673
H         7.60027385238360    0.15659288240176    2.48692342024770
C         8.33650249032518    1.35804918935868    4.11961546936248
H         7.39468284977295    1.41689371244223    4.64151589716321
C         9.44434167974168    2.02049156939011    4.59859399714485
H         9.39039409355424    2.62472077555366    5.49070141751443
C        10.65076000487554    1.93357244963600    3.89235646314550
C        12.75618987445298    3.16963047893031    3.54561194686952
C        13.32749323666802    4.39296919333721    3.90962683840037
H        12.97114905469630    4.90608696412517    4.78938348232384
C        14.32013303169009    4.93776539509697    3.12406583506796
H        14.76708926518899    5.88384031982912    3.38464344850491
C        14.71235616079015    4.24799935961720    1.98349850440628
H        15.46416705317900    4.64252180812548    1.32140107858994
C        14.12635454235972    3.03155619500248    1.70924254691797
H        14.42777590601954    2.45460083739270    0.84758155967976

