33
CSD_code = VAMFOG | q = 0 | S = 0 | Stoichiometry = C13H11Cl2N5SZn | MND = 4
Zn        1.43685770656545    5.08709913654266    3.85218776157246
Cl        1.25132335107085    7.19229539520332    3.14149645987763
S         4.34533028090996    5.03925468825715    1.04620090129519
Cl        0.61304172273714    3.93976390997378    5.49753281383818
N         3.53291742179109    4.88297393861640    3.65302293886062
N         1.21471296232698    3.72971457960364    2.16545624797691
N         5.68353949608221    4.92224186815784    3.44547076824628
C         0.55194626290434    2.59994831233592    2.38208177556740
H         0.10101061110801    2.50645927207215    3.36023648327754
C         2.54243621373824    5.20840468201733    0.78829487522144
H         2.17635571529343    5.99780006155366    1.45240770074306
H         2.47740543633774    5.53258030261527   -0.25048451442524
C         4.50892532630893    4.96276570997665    2.75608652128355
C         7.97760802835761    4.50734622541477    3.96831326796628
H         7.64921952195068    4.15795563203215    4.93400018366563
N         5.35897580948991    4.82528467267996    4.74501065967746
C         1.81580526541528    3.92177288773833    0.99221313703927
C         1.08136317035066    1.78210621289402    0.20839740346932
H         1.03420262815610    1.02357561701953   -0.55863202227302
C         1.77464454781210    2.95966355311036   -0.01247817409784
H         2.27978868415026    3.13997045645580   -0.94906107438734
C         7.03145349665839    4.95161546905195    3.04866595192092
C         0.45400790439977    1.59904099506861    1.43070850881134
H        -0.09712065612346    0.69870128526325    1.64805322029300
C         7.42319874155841    5.42368004364624    1.80328956841773
H         6.69620836849131    5.79023273281232    1.09753314385963
C         9.71521347663060    4.98843783876190    2.38526678991006
H        10.76181224974573    5.00214450570795    2.12320354166327
N         4.11011051870935    4.80909556852689    4.84509460626832
C         8.76876000730758    5.43665214889110    1.47948517646230
H         9.07489801931930    5.80509524417901    0.51275784259985
C         9.31687200795871    4.52825869584151    3.63042309716526
H        10.05057570249519    4.18356835797820    4.34236443822830

