46
CSD_code = VAMGUL | q = 0 | S = 0 | Stoichiometry = C22H18AuN2OPS | MND = 2
Au        2.18010891334045   -3.03019802634242    2.96578459376645
P         1.24976551750527   -3.16078800518166    5.02505958480742
N         3.26213815165086   -0.85225785001214    2.19762110318580
C         3.51137969998633   -1.38503389681687    1.01964027775915
S         3.05125215744798   -3.00135075338647    0.75609112036780
N         4.11457854681983   -0.69076547237576    0.03181837103873
C         4.52965788507033    0.64457597126443    0.14966997430867
O         5.05719472418155    1.19833970430201   -0.79187272192156
C         4.25185734146095    1.19160898268290    1.45254529034953
C         3.64448727854681    0.42609136551512    2.39339809116449
C         1.66092094732840   -4.63250312674225    5.99976820159983
C         2.94945432911593   -5.14166922928428    5.86323805503461
C         3.33376812151676   -6.25241946476020    6.59044287252010
C         2.43053681176685   -6.86352503851108    7.44632028062702
C         1.14512512417860   -6.36259350221046    7.57744081482426
C         0.75487112806574   -5.24733393523022    6.85799136971427
C        -0.56274297424252   -3.14970687009242    5.00485518685195
C        -1.17357768616749   -4.03516923728812    4.11909689620380
C        -2.55106725809900   -4.08543018930626    4.03255638058785
C        -3.32335212488481   -3.24338953849090    4.81873960207078
C        -2.71730373294828   -2.35421043242367    5.69077134525210
C        -1.33749046401056   -2.30275729711205    5.78867987394080
C         1.69014825457765   -1.77068365389102    6.09913518968213
C         2.06479772836394   -1.91238010316380    7.43002757282272
C         2.39353975183088   -0.78856542896686    8.16842429598228
C         2.34975917366389    0.46748953324514    7.58616652033680
C         1.98206646961901    0.60808229341655    6.25613856206073
C         1.65923707304684   -0.50847841125430    5.50963481373261
H         4.28061478506220   -1.14915882145073   -0.85676939523026
H         4.54123069662497    2.21110262050175    1.64293677246786
H         3.42870708954136    0.80885201374571    3.38306893343435
H         3.63688860410613   -4.65882311358800    5.17987688119271
H         4.33358785162991   -6.64625990401677    6.48618243894552
H         2.72749509473206   -7.73557618956941    8.00939028288031
H         0.44311889169242   -6.84308683838125    8.24284408962883
H        -0.24755650887643   -4.85423947042368    6.95771340610083
H        -0.55392649354176   -4.67464418202763    3.50265416397028
H        -3.02430956012162   -4.77356172533234    3.34837112809384
H        -4.40005584783448   -3.27706583529113    4.74672093029291
H        -3.32094860095708   -1.69576878223264    6.29781357642697
H        -0.86358615352424   -1.60812301113644    6.46831603732549
H         2.10041906333172   -2.89373662766239    7.88258550563194
H         2.68604527792257   -0.89476412114220    9.20267461461506
H         2.60841405595859    1.33927027963961    8.16834617964870
H         1.95346262452238    1.58847319841552    5.80387647601508
H         1.38738824098422   -0.42366787757475    4.46531445988716

