105
CSD_code = VAMNAY | q = 0 | S = 0 | Stoichiometry = C38H62CrO4 | MND = 4
Cr        5.93258287654219    2.57466980923323    4.51458317788579
O         6.52881238507061    2.30137300088333    2.97965912380655
O         5.34973569709119    2.91896890935157    6.04076197067971
O         7.08126920290839    4.91524982832560    4.45094848114958
O         4.94142188945629    0.16454730997985    4.58496561691367
C         7.07683885367210    2.16825797900611    1.78914235862769
C         6.41197683606957    2.66015354403319    0.63493539954074
C         7.04335122405399    2.54100103768043   -0.59148937924033
C         8.29163897730485    1.95588603028698   -0.72665176466164
C         8.91906315356856    1.45842109410914    0.40747071307462
C         8.34593192455168    1.54024512476808    1.66234131810125
C         9.03780831912349    0.94524059406330    2.88779360652164
C         9.29289633269674    2.03077947494681    3.94276508127473
C        10.39032447167254    0.30372351879119    2.55207792749286
C         8.13884665832430   -0.14861120382946    3.48103935933146
C         5.04319693658447    3.32969455835454    0.75167381074619
C         5.18657436677876    4.62839925702969    1.55552396712474
C         4.05334627186902    2.39899737044302    1.46492446436686
C         4.43772667816394    3.68564348498225   -0.61212255263948
C         8.96474245801905    1.85657905629319   -2.06472386704083
C         4.86401924858233    3.29420058566968    7.20681988461134
C         5.67308951680018    3.23796525767380    8.37330800320965
C         5.14184286310229    3.69318398925802    9.56559594584053
C         3.84979516268456    4.19148891630119    9.65974915577782
C         3.06164525671278    4.20996364300654    8.52082044426614
C         3.52749131425180    3.76686806664505    7.29497320609691
C         2.61795645570696    3.74694402420051    6.06686840064797
C         3.20751519667848    4.60649710768148    4.93984878309830
C         1.20982556948178    4.28030962701040    6.36131391868551
C         2.47345503486776    2.29617487219750    5.58536820607070
C         7.10369229315847    2.70647349485678    8.30328128850643
C         7.95163446881666    3.65680712338517    7.44873094519164
C         7.11930449761879    1.30793473171818    7.67184596545514
C         7.76392420632951    2.59611935662604    9.68336272130250
C         3.32939149315109    4.69063254892797   10.97635210551278
C         6.65109643595097    6.05007294630498    5.17881633231702
C         6.50381741120597    7.14430791585109    4.12197608730512
C         7.67394140456765    6.83563994775998    3.17719785851499
C         8.05560073939178    5.38292806871004    3.53160510327900
C         4.15817025296950   -0.41670950116664    3.54381793756010
C         3.67375034983635   -1.77214290683678    4.05672095666720
C         4.79394522363536   -2.15485892541249    5.01887701125537
C         5.15355771385988   -0.79666829958339    5.61495381532179
H         6.56557251284525    2.91092894483026   -1.48389046710174
H         9.88443798202852    0.99691145777840    0.27842758536721
H         8.35027512721595    2.46483585284335    4.28827013069346
H         9.91751927941488    2.81828413412935    3.52565897947861
H         9.80508392636523    1.60085593760532    4.80119387717196
H        10.27672952254326   -0.51134958939961    1.84106658475958
H        10.82643401238242   -0.10489200707244    3.46205873925690
H        11.08525603211764    1.03612344130339    2.14782068918027
H         7.19182973768947    0.28072967577623    3.80316778918785
H         8.62407423089727   -0.60895118866372    4.34020146993354
H         7.94686796209380   -0.91981744708447    2.73629116905553
H         5.56134885750319    4.41123441525690    2.55424233209558
H         4.22084317202064    5.12233714814470    1.64699405015788
H         5.87490516426622    5.30356476532879    1.05024094379006
H         4.37830189681739    2.21595797726747    2.49067711637962
H         3.98121112061368    1.45085614968431    0.93494217753969
H         3.06599817900571    2.85638375269534    1.49276514051979
H         5.04747502208824    4.41470944921737   -1.14061984267080
H         3.45271603583554    4.12421940963544   -0.46137386135406
H         4.32039901534909    2.80055836454409   -1.23324396505402
H         8.29847679785156    2.18262340815928   -2.85995324130137
H         9.27070209732420    0.83055813262622   -2.26711323976999
H         9.85929191864535    2.48012764649250   -2.08945999306367
H         5.73194656260196    3.67281887873985   10.46719588737328
H         2.05553703852152    4.58489353947490    8.61434551706846
H         4.17502128093112    4.20693049416318    4.61889357833387
H         3.33136614941167    5.63441869783558    5.27691826371401
H         2.53756522703216    4.60399775676092    4.08240008051636
H         0.71113877593959    3.68361917284484    7.12149616636265
H         0.61256126405513    4.23006676201530    5.45242010320084
H         1.24002120225429    5.31834849693215    6.68464437903946
H         3.44573175666988    1.89522582178882    5.30289383577624
H         1.81199752279908    2.25090923877659    4.72163407128278
H         2.05204154432309    1.67974581092669    6.37802388150619
H         7.55245295689961    3.70797230851229    6.43799042942996
H         8.97943169858233    3.30208514612332    7.39796573402179
H         7.94945828834669    4.65434511567588    7.88496502937444
H         6.77429423375094    1.35925710370868    6.63751706710763
H         6.47455041280319    0.63467525507881    8.23421789277965
H         8.13126558152613    0.90702015592550    7.67850527080214
H         7.19349383453120    1.94423450086941   10.34112278397765
H         7.87111258702260    3.57146226971541   10.15197652215083
H         8.76000337131270    2.17183357168022    9.56908270918864
H         2.28504988177669    4.98286509833622   10.89575839807797
H         3.90345121988592    5.55497523314200   11.31169925611149
H         3.41518548747058    3.91918463704597   11.74138314396045
H         5.73001018617783    5.79211157889024    5.69752777319594
H         7.41787936426167    6.33222130905300    5.91530290045926
H         6.55687069341234    8.14265898922023    4.54913685023352
H         5.55326073551270    7.02830861598996    3.60295560811040
H         8.51389017668130    7.50496252431383    3.35729976352399
H         7.38157550426495    6.92886717819798    2.13412317457399
H         9.04562484929320    5.35146165827112    4.00680893553352
H         8.05181448342417    4.71140123270510    2.67264334418137
H         3.33452131272349    0.25860419351797    3.30463977337381
H         4.79409498746251   -0.53257383635092    2.65707423923419
H         3.53436671714808   -2.48928961744405    3.25165738211827
H         2.73424572265523   -1.65845974293636    4.59839069538604
H         4.48505328332701   -2.86996685495589    5.77712566220990
H         5.64314102247282   -2.56053664285765    4.46837960578857
H         6.19354877439759   -0.73750193951082    5.93667353402221
H         4.50122708273815   -0.55379591278428    6.46462370306019

