40
CSD_code = VAMXAJ | q = 1 | S = 0 | Stoichiometry = C15H16N4O4Tc(1+) | MND = 6
Tc       12.90816497903164    3.21666460658083    6.99491067795744
N        11.33513015084558    4.52179335784989    6.33048518808764
N        11.41902573209037    1.98808281794285    6.81780372063032
N        14.13812195663581    1.78934130346308    6.55355386595888
N        14.69404718027283    4.31663405056908    6.48946854541291
O        12.98591583496370    3.65120455097788    8.57135330916381
O        12.76517282928833    3.10886172870455    4.43185273972457
C        11.43819448580246    5.82761451039377    6.07759931340436
C        10.35331901911969    6.61660884733749    5.75664702665268
C         9.09582391018679    6.02638266536582    5.68386348482391
C         8.99057165686094    4.66994263888205    5.91811179754678
C        10.13391984143496    3.94212310640681    6.23857679235078
C        10.09319962419669    2.48195705561870    6.49672871356739
C        11.44510931673742    0.61753768417394    6.95477817792506
O        10.50947721812455   -0.08310273784928    6.64786782626765
C        12.73565954010635    0.07510404852355    7.52689944907378
C        13.92706942000688    0.43511696690950    6.66894940395106
O        14.64275094081637   -0.38160331062227    6.13890004165316
C        15.40909077288378    2.10379805700106    5.91693358873711
C        15.70443822656768    3.55603462519493    6.05307330522906
C        16.96783665060882    4.08458373023103    5.80571757190185
C        17.19807958842586    5.42529378630117    6.04910013308102
C        16.16076795878205    6.19341733081740    6.56572794156532
C        14.93180847092106    5.60011303799019    6.77020189938759
H        12.44114829927460    2.26717256995437    4.09194715922064
H        13.40417852703145    3.44356336953520    3.79501499594744
H        12.42674827884638    6.25617404379368    6.12699045009409
H        10.48707309304415    7.66987989268746    5.57140924622701
H         8.22422831008242    6.61464831286589    5.44305488608905
H         8.04072919382911    4.16245359544755    5.86113131132252
H         9.68635034823217    1.93627706807538    5.63303707989319
H         9.41459382581560    2.26765821845239    7.33523996827061
H        12.88022142800864    0.50943087631651    8.51895543294149
H        12.66250877679007   -1.01069375095233    7.59604996861338
H        16.20807242986460    1.51312219559711    6.38545459450189
H        15.38865347284365    1.79244819952520    4.86163763904953
H        17.75233933024137    3.43840824314909    5.44549472895981
H        18.16894713974339    5.85883352805543    5.86819299612904
H        16.30692965294739    7.23122301240285    6.81589976521850
H        14.11788258869394    6.15679616633038    7.20998526346947

