58
CSD_code = VAMYIT | q = 0 | S = 0 | Stoichiometry = C23H28Cl2N4Pt | MND = 6
Pt        4.21862427782067    0.21362587499623   10.78412672441684
Cl        2.12629998035992    0.04388491144238   13.16003144819862
Cl        4.58506949034833    0.95388917329924    8.50645828461375
N         3.45545709547407    2.17033232920050   11.26445721295096
N         4.05263299243861    2.85773809449797   12.17329890107474
N         3.93816061296656    5.63122297549554   14.33758721595766
N         2.12591398426139    0.18619500196418    9.99808749059035
C         3.40657995353480    3.77476788390516   12.88165655364057
C         4.25971771432128    4.41938230777772   13.89575754917754
C         4.71836629391844    6.21062591187244   15.22972566114466
H         4.40285159169745    7.19661549162186   15.54631012154377
C         5.86600419325956    5.62363935402518   15.73996179050248
H         6.47220478303278    6.14044793398740   16.46716037900181
C         6.20692199843385    4.35866217411847   15.28434949731887
H         7.09198265283392    3.86069745801061   15.65257792602426
C         5.39597760213576    3.74336116940497   14.34908680082613
H         5.61974720088800    2.76270952258617   13.96294432164141
C         2.03004074205094    4.01608130743295   12.69181909232011
C         1.28605475332917    4.97332724006190   13.56212615068403
H         1.75455586536662    5.00017441928567   14.54589649362767
H         0.25437842682495    4.64470108694677   13.68211106739539
C         1.30863005385730    6.40042163998385   12.99761357115311
H         2.32524609370037    6.78331220936752   13.08896972768768
H         0.65670343167915    7.01898066632997   13.61774087513835
C         0.86642576941528    6.50171622104992   11.54111050110290
H         0.89093423883663    7.55786913839837   11.26492351448334
H         1.59082066683299    5.99105654952120   10.90301251859004
C        -0.53685487698899    5.94049642590572   11.27589173931095
H        -1.07539697496577    6.62779576126593   10.61936888576055
H        -1.10093339673779    5.88668801421390   12.20859619772595
C        -0.53998401061183    4.57704964287755   10.58587439905409
H         0.08802143837859    4.65009946020619    9.69527547593256
H        -1.55961657951591    4.36593792092735   10.25321653702502
C        -0.08969282126288    3.38309237212659   11.44465731413420
H        -0.60785421995723    3.42933226658149   12.40421445117313
H        -0.41625547916848    2.46542181431040   10.95089317901066
C         1.38976803143763    3.28719223279706   11.68282583467265
C         2.16727874146799    2.35911577493194   10.96579741720207
C         1.67274559268520    1.44474149760303    9.91702000496151
C         1.72198577057832   -0.70399137010051    9.10606358383925
H         2.10183229235328   -1.70916494208402    9.22791968496788
C         0.86921021895233   -0.39121093288938    8.06068172961534
H         0.57264795164922   -1.15029776681723    7.35501719001187
C         0.44824715880996    0.92069642868837    7.92747722305463
H        -0.17495790645773    1.22232113954444    7.09910178614412
C         0.84818972081493    1.84958843879340    8.87237157080744
H         0.56304993426866    2.88263996563644    8.77146603273225
C         3.81928955429741   -0.33257045003966   12.75078251230435
H         3.94015059130656   -1.39628045499110   12.96586129756694
H         4.41941916355119    0.24147357168926   13.46211145934303
C         4.74759096537760   -1.72702450936722   10.34509926561743
H         5.62005578979318   -2.09248524708780   10.88656872229558
H         4.95867530348153   -1.77909488007222    9.27606345058689
H         3.90452417934870   -2.38538613715527   10.57415828699161
C         6.18544515184731    0.56672355115129   11.25572707729676
H         6.23963346826354    1.63473521809755   11.47706571880969
H         6.80005868857751    0.35338430893635   10.38184297290665
H         6.55702409853895   -0.00575716192067   12.10528760829698

