34
CSD_code = VAMYEP | q = 0 | S = 0 | Stoichiometry = C13H16Cl2N2Pt | MND = 6
Pt        5.70023829274829   11.26039542748174    4.63292396479316
Cl        4.16173816608483   11.37280340913443    6.51604280637728
N         6.96373974077962   10.02610252609926    5.95557175088100
N         4.77444590544889    9.25519005739897    4.50745265539149
C         6.42884840084232    8.82447348773153    6.19141766687139
C         8.33653469119571    8.19479548198878    7.50183055224441
H         8.87313789123201    7.47344572326997    8.09964458760097
C         7.10606531719908    7.87598543918091    6.95869825627655
H         6.68540924302842    6.89526197259243    7.11019646124162
Cl        7.45143223916947    9.30875219495663    2.88508304205684
C         8.14591401309944   10.32737772493269    6.46726215710905
H         8.53456934244449   11.31005867028117    6.23504838859012
C         8.86989167109507    9.45019081215118    7.25636301661052
H         9.82702997591257    9.74139062864494    7.65796636437100
C         7.08791420337828   11.03800042162189    3.10564615443007
H         6.75970558275850   11.39805677634966    2.12868099794849
H         8.04664704976802   11.50519805378401    3.34771861185496
C         4.27710256756151    7.55054391431909    6.09471625075247
H         4.54258676579473    7.01756086171418    6.99324938845899
C         3.06820208009308    7.30077754711841    5.47079699596812
H         2.39223863850658    6.55830246951294    5.86747925907915
C         5.12071071270006    8.53364423202753    5.58109221770053
C         2.74386529895730    8.02364482888824    4.33521278846045
H         1.81808511163923    7.85616022318329    3.80872026080356
C         3.62892494157116    8.99593500995497    3.89891427590088
H         3.40441769845247    9.58976070993477    3.02352431315452
C         4.41359789271212   12.22863949626202    3.35163391658098
H         4.76527774444007   13.20173230767029    3.01055098492212
H         3.46944311486787   12.36678430162869    3.88089427221839
H         4.24182458335006   11.60413878985088    2.47087978740760
C         6.43960602950591   13.11750618245721    5.11676186484875
H         7.07146827001195   13.56870579000500    4.35115595941167
H         7.01408696764466   12.99707884300844    6.03826054361416
H         5.60979985601071   13.79020568486488    5.33070948606454

