52
CSD_code = VANBOC | q = 0 | S = 0 | Stoichiometry = C21H20BClN8Ru | MND = 6
Ru        1.10896954254865    2.94496158563171    8.03019499634734
Cl        2.87506081941317    4.03056475776334    9.15126211969100
N        -1.35106951170058    4.24388551182408    9.11726540584598
N        -0.13646307307121    4.52059831582449    8.63432421116406
N        -0.78561212992008    2.07072721158823   10.10159334063233
N         0.50937700177275    2.09746317528624    9.77440173016588
N        -1.71589844031789    2.18387294140993    7.81064921020587
N        -0.55105957116473    2.17360648553166    7.16335645654564
N         1.82666718132884    3.78334118514912    6.36257407380004
N         3.25262017836601    2.01640365639560    6.57230935827210
H         4.07868727902149    1.49075944090092    6.30006019615747
B        -1.82087874269847    2.78550801622310    9.22237665093445
H        -2.91563127277645    2.69862905142436    9.65680720673290
C         0.05798571274613    5.82476302081604    8.74704339306589
H         0.98368065018352    6.27679474090694    8.44351073151989
C        -1.06945201224134    6.42016116717404    9.31439205653492
H        -1.21958898447137    7.45699043200391    9.53425921140206
C        -1.94020034471711    5.37438261303818    9.53472548081231
H        -2.92506293305072    5.36412972571563    9.95619867293810
C         1.19210290957505    1.52890268342561   10.75575721698594
H         2.26207630258856    1.45116642595737   10.71727063349510
C         0.31119778059907    1.11177589144557   11.75459473911651
H         0.55400961394802    0.62019721380444   12.67379188337462
C        -0.93540605577878    1.47823830611804   11.29725722137199
H        -1.90357403563513    1.35879887044272   11.73998554206945
C        -0.75266013125100    1.62835395437824    5.96934335443193
H         0.05440245166867    1.50749374784137    5.26885406432897
C        -2.09532226449126    1.27286894976079    5.83967014530464
H        -2.57078879194751    0.81247837723760    4.99849338186574
C        -2.67049596219670    1.64621518876396    7.03575696793372
H        -3.68210418997044    1.56353847755719    7.37666565929195
C         1.43965818624759    4.90404576647908    5.75204857021876
H         0.50344716670604    5.33140985332894    6.08734153881823
C         2.17230649882027    5.50703411883801    4.74933950559415
H         1.81630926900440    6.41712485815699    4.29467926177257
C         3.37434181638973    4.93170374667826    4.34885141751103
H         3.97680802945404    5.38950041907944    3.58033688632751
C         3.77958037325431    3.75747590499008    4.95317265588875
H         4.70173752541402    3.27067511596599    4.67588077124658
C         2.98031680714060    3.21018344587730    5.95352053594821
C         2.37791982218079    1.58610708190166    7.50961666033331
C         2.65997689595618    0.29218275101177    8.10100865333885
C         3.96121314582555   -0.11716211989231    8.41224584358792
H         4.79482513676535    0.54101324739069    8.20966414844981
C         4.18383097502937   -1.32600879479235    9.04300528969380
H         5.19212822839539   -1.62174244758154    9.29465297160538
C         3.12070694244389   -2.15762445232898    9.35564353262958
H         3.29977373572544   -3.10327616452056    9.84535554296486
C         1.82613616136444   -1.76786520253808    9.04606716466069
H         0.99575332251470   -2.41369776938664    9.29151972516525
C         1.59527887715169   -0.55253702171049    8.43548607752217
H         0.58898210784901   -0.24371345828698    8.18781793439197

