37
CSD_code = VANBES | q = 1 | S = 0 | Stoichiometry = C18H15N2ORu(1+) | MND = 8
Ru        2.79885310514497    3.89504313477508    6.76575441004639
O         0.81133834036060    3.77749032591810    9.01426692915565
N         4.09237564065347    5.04900720202205    7.86627232707172
N         2.63643483701132    5.98640361683943    6.50880614043468
C         2.99676907408186    1.70317933617133    6.32059941103298
H         2.82352943525727    0.83398743911895    6.94180231282742
C         4.24635481904710    2.32837344087868    6.09695388637224
H         5.18069957863624    2.04958544923584    6.56486952553542
C         4.08690193853337    3.29784557023164    5.06920355310685
H         4.89372636517927    3.80194812662585    4.55392977997191
C         2.74365956983204    3.21540791803731    4.60771348217899
H         2.33994460440602    3.73197086883034    3.74676332667929
C         2.05876532584814    2.25436165014839    5.38440599700433
H         1.06858687807389    1.86509709355923    5.18855994135374
C         3.69458617274281    6.24300189869153    7.37944090666816
C         4.28022743322269    7.43667702867369    7.77612406318793
H         3.93845972255008    8.38794727979801    7.40219489102093
C         5.32447180371749    7.36538415425684    8.69036325150236
H         5.80797535382372    8.26961216994119    9.02468152576894
C         5.73585554008251    6.13059534849615    9.17065048030071
H         6.54321472883432    6.05466597818605    9.88007528860977
C         5.08734070502536    4.98166752563217    8.73647888020977
H         5.36355431178989    4.00094131252868    9.10027658911321
C         2.11190377167874    6.87253022680637    5.72592278364841
H         2.55674792863055    7.86764017433971    5.67954660474067
C         0.95959239652542    6.66023675378504    4.90333184153360
C         0.16561160754251    5.50774450007686    5.02284177456744
H         0.43129479654932    4.75495610165686    5.75847965268512
C        -0.95686616429343    5.35475890203164    4.23874980429242
H        -1.57077626169044    4.47354869107825    4.34272685189058
C        -1.30276875823156    6.33417034305599    3.31457349723587
H        -2.17820630488035    6.20539552651217    2.69715542879457
C        -0.52896156935018    7.48008794563357    3.18795336184631
H        -0.80512700216856    8.24112785764897    2.47497568532873
C         0.58857915422373    7.64993392629734    3.97836252541191
H         1.18765730766941    8.54359654053525    3.88464755786242
C         1.57239381396375    3.86097864202221    8.16774573102291

