102
CSD_code = VANHOJ | q = 0 | S = 0 | Stoichiometry = C52H43Cl2IrN2P2 | MND = 6
Ir       14.80866688835073    7.61720983745510    4.69819637832458
Cl       15.38326173434512    9.78317756065715    5.34373692113615
Cl       12.51713313188525    7.96985262974969    5.63842500030915
P        15.23910390936708    7.03710837096156    6.93593256517041
P        14.59557788745881    8.50020790563743    2.53643972364781
N        14.50989217285248    5.59679215277799    4.10053898323913
N        15.80272951373613    3.61101226121977    4.04576571583036
C        18.12313013803394    5.18967741294317    3.77268288304176
H        18.20719920056520    4.12193742265816    3.63104571100153
C        16.88646475621183    5.73875125825328    4.03972524286039
C        16.72098420956123    7.13499551971486    4.24178272299568
C        17.83029724415252    7.93392986388855    4.18698678497252
H        17.75421252809425    8.99588478472949    4.36599697707488
C        19.10677298182351    7.40804429593446    3.90044628777103
C        20.24602633243887    8.23510792106279    3.82461407179620
H        20.12181625589493    9.29571219682982    3.98764521025252
C        21.47563752900553    7.70597790120869    3.55141532327468
H        22.34469952794958    8.34552741229868    3.49532457247075
C        21.62629714909620    6.32444595109864    3.34111431155231
H        22.60730495531422    5.92557868432082    3.12695756065173
C        20.54311484177274    5.49549525660476    3.40732632967553
H        20.65070429757231    4.43181892665570    3.24734441548545
C        19.25820329875428    6.01066123914499    3.68741323318290
C        15.68553067878448    4.92475423432556    4.08264774308111
C        14.70036111343857    2.87619077850557    3.98601882359180
C        13.46751905671668    3.49194356344645    3.82858387154202
H        12.57219319879994    2.91225697117864    3.67263420972870
C        13.39743736232165    4.88206777061630    3.87560842701580
C        14.85625424680724    1.39548433884650    4.06061568084226
H        15.88971553521313    1.12320168837487    3.86837388064253
H        14.19974528089381    0.90046573366170    3.34897029510721
H        14.58969505289016    1.05988735320561    5.06239717282082
C        12.10595538901237    5.56389270029472    3.63455204510887
H        11.85665935417948    6.22630870659705    4.46708460140268
H        11.30942015778358    4.84208470285023    3.48016564494688
H        12.18910526504384    6.20678390712437    2.75876939045020
C        16.94656373407240    7.38851351638703    7.47384727481994
C        17.20271055929607    8.50500169133134    8.26456020285607
H        16.38361649157117    9.11331105125696    8.61873722955358
C        18.50240862065394    8.84917246372880    8.58883080715932
H        18.68681441186884    9.71923098108607    9.20183606668577
C        19.56299627246231    8.09094991870740    8.12319150145163
H        20.57771395967422    8.36458477887125    8.37227668736164
C        19.31783005794411    6.98583699139351    7.32593344292232
H        20.13929096814995    6.39705334257018    6.94359282042110
C        18.02061794447609    6.64056632753405    6.99607682387565
H        17.84838418654829    5.79210363933392    6.35198802805323
C        14.28066475291035    7.76603753356367    8.30943443750934
C        14.05396820904143    7.01560917405821    9.45999202517242
H        14.42182223951081    6.00137120122030    9.53077607896770
C        13.35246011470082    7.56218703329885   10.51909664940990
H        13.17685768461757    6.96906554518796   11.40523732392467
C        12.87370657800456    8.85925732739627   10.44362557829345
H        12.31761538968405    9.27915092519218   11.26926363318350
C        13.11152098019868    9.61449402462627    9.30794033574047
H        12.74487178888981   10.62836922468369    9.24388562460672
C        13.81491565754854    9.07539093566911    8.24604043783041
H        13.99637300718352    9.67040599482631    7.36370525074724
C        14.94368631986345    5.26141434384281    7.24544136384758
C        13.63929270088982    4.83649005762183    6.99285387677751
H        12.90234200089712    5.56330189946839    6.67829772431245
C        13.28616667744587    3.51225596700385    7.15969335006353
H        12.27168053468898    3.19641016547228    6.96388167302559
C        14.23462516906377    2.59270361014817    7.57928126362244
H        13.96320907284057    1.55479297142686    7.71044069851571
C        15.52596628826274    3.01074892057780    7.84950810378394
H        16.26332184583116    2.30002091784316    8.19370268892153
C        15.88237669103017    4.33953190736881    7.69024656080398
H        16.88502996350518    4.65419557040598    7.93603579319238
C        16.16279029889877    9.17669694281969    1.87985391364842
C        16.54188148313169   10.43677087111338    2.34099817377460
H        15.89111513913577   10.97548371716261    3.01426571166288
C        17.75124380750794   10.98585552285444    1.96006500618270
H        18.03563355243302   11.96020594835094    2.32948855656577
C        18.59835262199907   10.28696053169930    1.11573486776303
H        19.54858245119614   10.71036478636806    0.82529585779046
C        18.21981913058884    9.04349360936968    0.64145295269851
H        18.87141996903057    8.49627024108683   -0.02428345379975
C        17.00914838999046    8.48925542233126    1.01887768646932
H        16.72946456123322    7.52376320384186    0.62681692050083
C        13.50567944909081    9.92359897056764    2.21149507844123
C        12.56679980770839   10.33907876691682    3.14521196325546
H        12.46739284179291    9.80895464536489    4.07994320607534
C        11.76197318089036   11.43388414032288    2.87547742920501
H        11.03701049526959   11.75638373751949    3.60778631362418
C        11.88796422463249   12.11231133732571    1.67639349586621
H        11.26226500691932   12.96805502972695    1.46815316800105
C        12.82090188392539   11.69520295066954    0.73799658190767
H        12.91908964518963   12.22269326296398   -0.19996010867938
C        13.62963979733821   10.60757334578928    1.00165032015326
H        14.36088818499615   10.28270331536861    0.27289437871451
C        14.07560760850680    7.29532109127147    1.26583682970098
C        14.80741442684882    6.11746849743394    1.11923543274569
H        15.69718616262752    5.96262077414083    1.71296582940425
C        14.39690021656282    5.13956925509582    0.23291417978955
H        14.97551806738789    4.23275789686630    0.13023468879219
C        13.24323260547350    5.31861832395709   -0.51330050842179
H        12.91984853156545    4.55337575534797   -1.20317002713853
C        12.50251119538660    6.47880487454865   -0.36446009791511
H        11.59754017386232    6.61984913319320   -0.93704647624719
C        12.91040849440905    7.45976973514619    0.52309376241640
H        12.31593354475751    8.35382519533826    0.64385829750069

