85
CSD_code = VANJAX | q = 0 | S = 0 | Stoichiometry = C34H40Br2F5N3Ni | MND = 4
Br        9.24313979122759    5.31433072445601    2.12587055755713
Br        5.94231844215877    5.28076186242774    2.91808185161521
Ni        7.81003324462065    4.46878182120114    3.64007979752991
N         9.04678062981072    3.39356193667753    4.47126586070534
F         6.51442599964659    5.85296971276695    7.15321329893200
N         8.54253552424214    5.88710762861439    5.38425781390909
F         8.74262239868689    8.20948342030037    3.72126213725845
N        10.55733537806301    4.78887145241130    5.56496053384816
F         6.75927426334113   10.03538549465168    3.68791129738637
F         4.62024374201417    9.78700716196307    5.36482027459050
C         6.66658120744596    0.59833007203396    4.59402208947475
H         5.77872003355705    0.31240209008589    5.13418861683870
C         8.44221370678408    2.15690302235825    4.15625901671178
C         8.95786792744251    1.31513100556072    3.15555986205579
C        10.89531350831484    4.69264847267203    8.44868412425509
H         9.96802837216297    4.56996071812232    7.87955242672512
C        12.06612572025969    4.77614513917043    7.49244723309243
C         6.56353377464331    6.87236465769144    6.28038141416120
C        10.54224876677758    7.23097534261622    5.79737483038554
H         9.88858353403450    7.94935128706012    6.28889613718600
H        10.81152966973772    7.63437431360831    4.81951938597046
H        11.45039109598679    7.10037117320111    6.37577791847081
F         4.52156968629576    7.69332118742877    7.12301599912921
C         9.81423656671703    5.94749569569168    5.56251141005720
C        10.09177026851804    3.53985149996832    5.19318258323357
C         7.27073091998683    1.81493839467022    4.86476061829713
C        13.36295344569628    4.81336225728091    7.98755532504609
H        13.52844857185275    4.77213322818362    9.05237940067343
C         8.30070441034798    0.11738499659154    2.90951790920346
H         8.67447999180191   -0.53966517149767    2.14022302616604
C        12.77861228620629    5.06449354293856    3.73371562092783
H        11.71332320978141    5.04373186637138    3.49504137797812
C         5.54359751000965    7.80877517411347    6.27078709256774
C         7.31583894979844    2.42469905858977    7.28284304542610
H         8.40300867082693    2.48227863858629    7.26059248072574
H         7.03329774441200    1.41784029071499    7.58526866952204
H         6.94763338219857    3.12888193657090    8.02512702181160
C         7.17938800661516   -0.24868478416399    3.62813382758973
H         6.69137026521610   -1.18975985929149    3.42462195846902
C        12.97367398508956    4.94818810922009    5.22540829213990
C        10.14426977075054    1.70867204978429    2.30844628525464
H        10.55028970961288    2.65870878881087    2.66673421315509
C         7.66551002194060    6.95853374199546    5.41870339528475
C        14.25289733065736    4.97320544719868    5.76858083586007
H        15.10461281541484    5.05544408832091    5.11280070994577
C        11.89324539506297    4.84078167373651    6.10419022095980
C         5.18860797007878    2.74368484336000    5.98436543679563
H         4.75541865596015    2.87500050353940    4.99475875964169
H         4.85246669717722    3.56360893660667    6.61527372586832
H         4.81351935862959    1.81681840375922    6.41210270785554
C         6.71439442787121    2.75364230770341    5.91443577311300
H         7.01178903516736    3.78546861934401    5.65896507896549
C         7.70627735555378    8.05863258267686    4.55045644674292
C         6.68312763215793    8.99762139401168    4.52114282975130
C         5.59507470669130    8.87624022622928    5.37897795368823
C        10.77633643660455    5.98447031601509    9.26347044541794
H        10.62400216484581    6.84466552842210    8.61739364590914
H        11.67526801441368    6.15246423481774    9.85137402637132
H         9.92987173795127    5.91392905433665    9.94214182861122
C        11.02627447276452    3.50057964783828    9.40227204955437
H        11.19225820143961    2.56976481374105    8.86304663235984
H        10.11455104588938    3.39645777212738    9.98561329401907
H        11.85434563800093    3.64158897258284   10.09140208111273
C        14.44650743905709    4.90403715133533    7.13399919772999
H        15.44684799014651    4.92830477563897    7.53867425815597
C        13.44991853251699    3.90624614058324    2.99238387860203
H        13.20850715690086    3.97343159295163    1.93541733718491
H        13.10148712106141    2.94460100142461    3.36264137758025
H        14.53088617457654    3.94159745326050    3.10384966305272
C        13.32988952896790    6.39817994236173    3.22259032990942
H        12.93208574909400    7.22950275467213    3.79829744525775
H        13.03471192401980    6.53113590477950    2.18611555725420
H        14.41484528340475    6.42578046669053    3.28565160603961
C        10.89193646621544    2.36506007312281    5.66845690878964
H        10.34791827579813    1.44453730149201    5.46803261750909
H        11.09898395471790    2.43967095278048    6.73227765906383
H        11.84719551706162    2.33165264974597    5.14678054261659
C         9.68273650138265    1.92295313148852    0.86372463911823
H         8.86910617257363    2.64291989613339    0.82859103667878
H         9.33798508275598    0.99190990721409    0.42068483673808
H        10.50231529456250    2.31506443636217    0.26798564604477
C        11.25457547546831    0.65748178154795    2.36263478252574
H        11.56217374846456    0.45727451760808    3.38765165238704
H        12.11800093022431    1.01005218696825    1.80373118648858
H        10.92679248405955   -0.27936253672469    1.91970732740087

