24
CSD_code = VANJID | q = 0 | S = 0 | Stoichiometry = C5H13Cl3N2Pt | MND = 4
Pt        6.09535257242669    1.31737385374976    0.93424901482078
Cl        4.08104541091416    0.33030090653148    0.95387651923389
Cl        6.76652887219988   -0.03507956136564    2.74903472672955
Cl        5.50642723817644    2.63371401610041   -0.79700446596036
N         8.00793909878807    2.38966355920353    0.76762320253323
N         9.37319723797512    1.26195639172188    2.68405694486291
C         9.18800157489783    1.70296416087933    0.24706032313883
C         9.97793510061024    1.01315372034327    1.37750299346981
C         9.18749125326000    2.69032587254992    2.92791768439324
C         8.39573950772159    3.36158921771666    1.78763706434555
C        10.14013436454332    0.63733942633106    3.75130465312781
H         7.57264373002987    2.90620296188792   -0.01246268505518
H         8.06470358439185    0.57135487575400    2.76226955487480
H         9.84220204011664    2.42346282708190   -0.26381249833646
H         8.85760814969385    0.96791240462057   -0.48958186323360
H         9.99146215593089   -0.06742633618095    1.22426322357159
H        11.01865610007852    1.36811330974728    1.37178771045369
H        10.16482778177563    3.18183868525142    3.03975403088915
H         8.65062436718121    2.79376732716192    3.87255254073043
H         7.48842367575259    3.82769289841084    2.17690082907300
H         9.01330952969232    4.14975606065553    1.33450050861859
H         9.62528172383403    0.78508279223094    4.69806232953251
H        11.14975189462074    1.05606630802908    3.82823066894597
H        10.21641303539070   -0.43102567841304    3.56177698924045

