77
CSD_code = VANNIJ | q = 1 | S = 0 | Stoichiometry = C40H30IrN6(1+) | MND = 6
Ir        6.26466667685446    3.93969072179340   11.04451058096558
C         7.97927840628072    1.21718569616342    8.14301557192151
C         6.29966242618711    5.15844349162255   12.66716484384553
N         6.36441762536882    5.46085138884670    9.68213682686117
C         8.81685919625964    7.92876564392918    7.50200932007937
H         9.41847232942516    8.60044722659440    6.91027764587430
N         8.35050455740106    3.39531847496302   11.07681816331150
N         5.98404143768387    2.57293979344482   12.53991417602756
C         5.19026957912236    5.99622496522369    9.33409761792540
N         6.40797287747937    2.57905465224342    9.37805384539845
C         4.29387809038589    4.37776182681618   10.83760530855877
C         9.99535006485415    2.03198197001196    9.94323411462397
C         5.94195875459560    3.07876598255142   13.77628860541348
N         5.35785092142106    7.04339608692390    8.48680200592880
C         7.33980089395715    6.17259494478168    9.03685110452000
N         5.66531846436920    2.11718661903694   14.69346436967071
C         5.66375849892349    0.22209218715569   11.68772945132644
H         5.80354259476112    0.43816301961022   10.64190705434672
C         5.73803436343094    1.23018415320527   12.64482762048389
C         6.65807871944501    7.22297236756631   13.88349331892980
H         6.83939314962634    8.28749637393941   13.86868826610978
C         5.53762744408919    0.92880387687102   14.00998127480039
C        10.28242866842628    1.13158324323977    8.87761448783962
H        11.29410239821488    0.76864444542256    8.77802348459030
C         6.56012033844573    6.55698907649707   15.09383935652036
H         6.67088168340695    7.09683118802342   16.02173251459717
C         2.68268195673279    5.71141324381669    9.56595586719536
H         2.45393281002790    6.46191995246195    8.82842865352136
C         6.53537322487018    6.52786639465559   12.69013698856361
H         6.63259139852629    7.07604962747290   11.76394290446680
C         6.18015816441182    4.49790924894356   13.91540737230709
C         5.45747303305254    2.20494407049871    8.54413020375367
H         4.46948763720663    2.59995204260205    8.73678691194835
C         5.27011602162074   -0.36463383029823   14.43652439690917
H         5.12144890762161   -0.60401249698530   15.47764214203612
C         6.71085556275521    7.17836739073139    8.27041467186110
C         5.68113895289783    1.33541015060103    7.47546682276082
H         4.86238010785084    1.06321740115192    6.82922144492607
C         6.32377911482692    5.19647307580805   15.11470123874586
H         6.27248684602073    4.69340899922381   16.06553841733042
C         7.65754947146763    2.10803282787541    9.19085905516287
C         9.31604486947774    0.74332033233871    8.01201730672700
H         9.53685608960501    0.06321933812887    7.20341426881073
C         9.28357955501791    3.78297216440573   11.92406254410391
H         8.97559143006420    4.48572376064243   12.68598888856324
C         9.44686730336569    6.94140590582384    8.26177764007239
H        10.52364609277430    6.87434675144464    8.24202181496315
C         1.90839875070743    4.05118229089799   11.10825796487474
H         1.09306805407672    3.52700790649151   11.58440585980149
C         7.44417597877446    8.06464278033197    7.49370628740506
H         6.97141474286882    8.83154760944363    6.90069653152710
C         8.68166742140465    2.52671805207058   10.09989488050629
C         3.21774326526377    3.72568959381537   11.42758371859977
H         3.39034325693276    2.94134400669406   12.15061744859385
C        10.60592570287726    3.34168445223951   11.85451847330022
H        11.32505946113058    3.69719819513786   12.57461425753337
C         4.35618898573490    7.92259496647326    7.94738252875987
H         4.85095611512630    8.77514407362622    7.48718152821213
H         3.70554762855478    8.28748926083599    8.74260839149796
H         3.75787713260926    7.41625032874035    7.18700010692160
C         8.72698837877468    6.05600017396777    9.03413426024485
H         9.22228898368962    5.30307636774933    9.62364305341088
C         5.39613639492861   -1.05861335962604   12.12016755705999
H         5.33187464438475   -1.85933691896251   11.39969492136899
C         5.45701335443544    2.26885355212637   16.10804775005214
H         4.76613440306013    3.08981766352804   16.30149392622558
H         6.40042986014511    2.45304823779988   16.62665041420366
H         5.02094492180914    1.35119374306076   16.49733028321265
C         1.64152425255032    5.03918770012263   10.17521365096887
H         0.62204380227743    5.28395395887549    9.91965068350255
C         5.20350743019854   -1.34876756134885   13.47216181361890
H         4.99694403134232   -2.36537397346297   13.76737055615168
C         6.94570603316485    0.83406103917503    7.27263555069246
H         7.15544894828238    0.15296363381931    6.46177790132686
C         4.00120134003588    5.39602893297478    9.89615152961484
C        10.96857137946260    2.46530790228852   10.85850931013187
H        11.98346663478849    2.10882962329010   10.76737837548092

