42
CSD_code = VANQUZ | q = 0 | S = 0 | Stoichiometry = C20H17N3OPd | MND = 4
Pd        4.69580239047084    3.82141104635066   17.29265354955976
N         4.05137392617048    2.06795610385183   17.62727982178054
O         6.58097744211976    7.48016287640069   17.65785888529817
C         5.10091723851983    4.91855469004226   14.67677959089927
N         5.05325847412690    3.64576910405039   15.14584399170681
C         4.98626046426142    5.20055257082357   13.28699084325662
C         6.10841164839715    6.37138445221422   17.84150996271415
C         5.30579925135665    5.98377442880107   15.61763172645293
N         5.44004041644784    5.61782027986633   16.93786699262570
C         4.11115152523845    4.46053384367922   19.11469893982087
C         4.79859779742135    4.10777552273442   12.41585771791715
H         4.69870377873135    4.29173214991511   11.35558207160397
C         4.88655812148581    2.64909451917388   14.30337940583910
H         4.86979498058322    1.64865356912582   14.72370132807425
C         4.74969285323245    2.83636551743103   12.92140708074571
H         4.61221352633401    1.98042897736274   12.27869321504297
C         2.84590791779096    4.21693458644225   19.63730174725647
H         2.15677259998046    3.54709512470953   19.12757445260439
C         3.70187464956301    1.01142958454637   17.92501756726092
C         2.43721395603059    4.82147689645230   20.81854916537540
H         1.44935886730546    4.61920585079437   21.21002482406192
C         3.25403452439028   -0.29910245735924   18.29251014750898
H         3.93456437772420   -1.05216478152864   17.89551188068804
H         2.25429723248821   -0.47289391487136   17.89457947654851
H         3.22567066360763   -0.37948552229163   19.37898147846886
C         6.29795972601267    5.64710851532054   19.18838217037031
H         6.83688785701634    4.70741867474369   18.98862446587927
H         6.90038802671635    6.28480835471727   19.83534872017735
C         2.83801936944309    6.32564501455951   22.78511047412823
H         1.79461242433544    6.62908136414771   22.72822093768083
H         3.44552090555561    7.19746186717277   23.01384494745475
H         2.93596354173320    5.61679492100754   23.60813845805692
C         5.25719573921032    7.53956330228754   13.76115384608587
H         5.31495063916328    8.56403778662143   13.42317943955943
C         3.27787679796099    5.68922043346190   21.49983719870988
C         4.53695023176307    5.94623522566252   20.97216363518787
H         5.19945069130260    6.63067559586215   21.48446654143643
C         5.38340613434996    7.28011769129693   15.12513167608096
H         5.54855705889601    8.09242573669480   15.81266526582398
C         5.06127842558264    6.53355939853326   12.84856890075495
H         4.96468396333354    6.74498582946981   11.79423203942302
C         4.95484984384046    5.34409526972648   19.79554542007834

