39
CSD_code = VANQOT | q = 0 | S = 0 | Stoichiometry = C19H14FN3OPd | MND = 4
Pd        5.21375182445355    0.36789970285823   10.77339505540965
O         3.38622861746959   -3.32823237172926   10.51563435480752
F         8.63676151471438   -0.37336016818889    6.71539659033952
N         4.48970505063630   -1.42329664747890   11.17921969181731
N         5.87037247516982    2.11602356620099   10.38729115502368
N         4.85630106320214    0.61350346558839   12.89315409695238
C         6.82190011185510    4.36351980894766    9.54153956799473
H         6.86114041061399    4.35215236671742    8.45219887782693
H         7.82920037285220    4.50464679276220    9.93383254872254
H         6.18915200869710    5.18826600267246    9.86942809335982
C         4.62267063277578   -1.74197816524122   12.51323419977811
C         4.94767353554194   -1.21839515943565    8.30420714506430
C         7.03759555102911   -0.03958932590895    8.41744440595611
H         7.73604325911398    0.64524270378885    8.88776483633879
C         5.78449560425227   -0.30528013199750    8.96044071731889
C         3.61887166119114   -1.52996088455068    8.93560802626130
H         3.02100039242676   -2.19491292200593    8.31269852374633
H         3.06547875725719   -0.59560990166824    9.11770340400699
C         6.29085151365707    3.11889999901399   10.00830805479260
C         4.55265626094163   -3.01904393572145   13.05336332491173
H         4.40065360693596   -3.85873079114766   12.39648148814353
C         7.41685887851353   -0.66241777978033    7.23819323032819
C         3.83406040559864   -2.21569983413522   10.30030876477310
C         4.84409205754694   -2.18148525574344   15.30285048888154
H         4.93089439651315   -2.35098647940719   16.36550082753964
C         5.00209189437884    1.64507869799409   13.69707629511275
H         5.01803516687735    2.62800083469930   13.23747681629876
C         4.91141796165317   -0.86540969664626   14.81404941070445
C         5.35691840931153   -1.83579117137786    7.13161854474266
H         4.70450617360878   -2.54242742918088    6.63979167004097
C         4.81100550825542   -0.63993933249039   13.41308732430978
C         4.66819476453823   -3.22393985127418   14.42818094668960
H         4.61706309222698   -4.23501091781039   14.80488529107765
C         5.07685284771195    0.26309021670441   15.64304111019128
H         5.16439848849357    0.12287648196733   16.71094426418848
C         6.59759222640406   -1.55604953003924    6.58117325724100
H         6.92857895263060   -2.02343189330363    5.66742757454242
C         5.11956173886889    1.51378241586549   15.08734203633443
H         5.23907281208254    2.39589652048369   15.69710798842849

