101
CSD_code = VANQEI | q = 0 | S = 0 | Stoichiometry = C50H45Cl2N3Ni | MND = 5
Ni       -0.87195917264819    6.26313977289523    8.29412281210867
N        -2.60075906154325    6.35387676136459    7.91030884501859
Cl       -1.59765822084339    6.66087670551096   10.49893849046409
N        -0.93757926319076    8.19556161209331    7.68453992419489
Cl        1.16511144978600    6.12001309312543    8.57851502126499
N        -1.24451004002994    4.29459783872662    8.19602140661405
C        -0.43221219070376    3.20968643513735   10.75633822058037
H        -0.62202973417375    4.28337145661231   10.62650600446213
C        -1.32221666176268    3.41513495662368    5.28762999995328
C         0.12799541027214    2.69570141635986    9.44872700844799
C        -2.51033314419179    4.04926464497132    8.15686156243701
C         1.67452234196917    1.30204376636095    8.20765037406146
C        -3.15974190948926    7.55899363716788    7.72100295570655
C        -2.24424672182540    4.39912651376531    4.95259883947676
H        -1.97360931107416    5.44148604167934    5.06093255295109
C        -2.15954409970337    8.61395318962894    7.63047441585616
C        -1.74276679879928    2.55514940682529   11.10861351960380
C         1.08749529188937    1.69759425166645    9.40270774368771
H         1.40518137377874    1.23392832419401   10.32550627854845
C         1.14017698325425    3.78200265072350    4.80129082166269
C         0.03154680615296    3.79785265790890    5.82729004620418
H        -0.04181687518765    4.84024938715170    6.18855062592056
C         0.60969835531326    3.09658809424593   11.84946503094320
C        -3.33846618121976    5.23747998462218    8.00120813566897
C         0.17174661246405    9.05227968164893    7.60779375113778
C         1.33137338638806    1.96781830402103    7.03958157157696
H         1.82569449298691    1.71594750201984    6.11254122059025
C         1.75246016075809    3.88248339978232   11.73480919153067
H         1.85467889045040    4.54851485397377   10.89029507466111
C         2.70577295340286    0.21551594527639    8.20229200099551
H         2.95284353280771   -0.08332355708200    7.18668743006310
H         2.35061679592812   -0.65515347336361    8.75121219943232
H         3.61552079598575    0.56576870225065    8.68907285069988
C        -0.26906409619558    3.28686010264376    8.24652547556727
C        -3.12681650209429    2.69386346733829    8.19192001034724
H        -2.36059885782906    1.92388173805993    8.21685457697347
H        -3.74511387912221    2.55544870099971    7.30535608154812
H        -3.75683410910665    2.59126060688464    9.07423526362479
C         2.42837291014266   10.63656813926124    7.36598402939968
H         3.30692428551920   11.25738169498401    7.27434362732998
C        -4.72480673294813    5.30425275479866    7.93252375296708
H        -5.31748828477185    4.40869115012968    8.02151772080332
C        -2.56848931304748   10.03836982417333    7.45364319290422
H        -1.70184255614784   10.66313795334293    7.25109147290908
H        -3.06165798109762   10.39679867378175    8.35678023229079
H        -3.27292200202191   10.12299655035464    6.62718205155554
C         0.38247863861687    2.97480874046734    7.04791942461817
C        -1.68298743461714    2.08074526875834    5.13994448628418
H        -0.97575174558440    1.30782112402606    5.40465784337429
C        -2.93755752739310    1.73996717269616    4.66608161798854
H        -3.20488827675263    0.69931941370636    4.55275767547211
C        -4.54334119844873    7.68429273981208    7.64598480315961
H        -4.99871905058737    8.65221033677001    7.51190693483779
C        -1.93006769053191    1.18461862489206   10.96701646441051
H        -1.12307408101023    0.57086888785336   10.59220790496273
C         0.47819127876232    2.25124827377607   12.94062560160577
H        -0.40627617050298    1.64029685757226   13.05166849228587
C         0.51527813988994    9.91803173241562    8.65401512745938
C         0.97470374264202    8.94916244713227    6.46158319783989
C         2.31251551431524    4.46544970724244    5.11193794576543
H         2.39170356720382    4.97454981793736    6.06229730889753
C        -5.32448607637977    6.54336280894374    7.75669380330686
H        -6.39980839747995    6.62034208222121    7.70760791954869
C        -3.50237087713588    4.06052110672598    4.48776224086631
H        -4.21161039390109    4.83706414767649    4.23760599764441
C         1.47538420351185    2.18813441146268   13.90045235851124
H         1.36010727493127    1.52668840197694   14.74763408251225
C        -3.85259254480331    2.72856493480423    4.34292463631084
H        -4.83405255277911    2.46211078158965    3.97879723599420
C         3.26095721243335    3.83010122909687    3.00253385564279
H         4.08325527154644    3.84776373675090    2.30214719918195
C         3.36606377325783    4.48712199255656    4.21836083611849
H         4.27143468515216    5.01977401173045    4.46972479103452
C         2.61209049389577    2.96626299844713   13.77783497071996
H         3.38836953285552    2.91450996935907   14.52781561050806
C         2.74679125161297    3.81605563364805   12.69149689137231
H         3.62852368670091    4.43214038650652   12.59186839043388
C         2.09286968097586    9.75664474126888    6.35205499861473
H         2.71018236617020    9.68504720759646    5.46887452595749
C        -2.78868095936307    3.33266670890933   11.59150726279201
H        -2.65212498864731    4.39898223900108   11.69865897991334
C         1.03956072010066    3.12673498364322    3.58333411214797
H         0.13414951449854    2.59625578416670    3.32519094866269
C         1.65065100309754   10.70329757406350    8.50620438504559
H         1.92858137881738   11.37067055736706    9.30877376277951
C         2.09686892048085    3.15208327384264    2.68830952515001
H         2.00793303509166    2.63837770361900    1.74161000427629
C        -3.14034742774851    0.60270613911897   11.30097672705280
H        -3.27335892263482   -0.46413733475311   11.18986018917721
C        -4.17919115998095    1.38396643680936   11.77943093339121
H        -5.12373227284684    0.92868841351252   12.04088490945409
C        -3.99957637314357    2.74999583244482   11.92371153131087
H        -4.80568839724359    3.36474613412715   12.29808158415569
C         0.60211944481133    7.97603528839020    5.38787251486580
H         0.42132890449426    6.99805615172655    5.84181424838289
H         1.39911929519181    7.87884068995002    4.65615110407046
H        -0.31032290124552    8.28505974682775    4.87520491694946
C        -0.27681464631859    9.97360725502947    9.92281647159106
H        -0.68930189485892    8.99761379384863   10.17154346104948
H        -1.10112443766510   10.68345209268788    9.84120166833872
H         0.35948674006080   10.29366349354256   10.74402217148768

