39
CSD_code = VANRAG | q = 0 | S = 0 | Stoichiometry = C19H15N3OPd | MND = 4
Pd       -1.76785698908004    1.48882753126986   16.44268463094563
N         0.02134033897470    2.20591579811226   16.00655253342890
O         1.93222909745652    3.31762717591298   16.64041594697167
N        -3.51152611211077    0.84881353577718   16.83417931664222
C         0.32665548866083    2.06016776929542   14.67208716164865
C        -3.07087986806706    1.71050017792362   13.50789327061424
H        -4.05167722104218    1.71523186282336   13.97233905558844
C        -0.78298670604164    1.87429589431989   13.77996061195435
C         0.51198972779307    1.31778833977085   20.02795451210639
H         1.22806385071534    1.96897045756513   20.50928716688457
N        -2.03421069069977    1.85229380961587   14.30549993111555
C         1.60118921292145    2.11148379123922   14.12271712997298
H         2.44600899316146    2.26288454281048   14.77318182638600
C         0.82447980475917    2.86501954497304   16.87321018340343
C         0.74824832962177    1.80003731805219   11.88216954577603
H         0.91081586363634    1.69725838480719   10.81974472963701
C        -5.86243809296807   -0.03564345325010   17.44399905457619
H        -6.62745257921821    0.51155813398220   16.89200501369578
H        -6.03142293433645    0.09212396898394   18.51372383953758
H        -5.92904300654178   -1.09534063552039   17.19541076381050
C        -4.56116945450990    0.45866427023786   17.10428663836277
C        -1.05829075340013    0.90150594926584   18.23875457905942
C         1.79743738726603    1.97671836563378   12.74887898663721
H         2.80693866685124    2.01234800946876   12.36585823499026
C        -2.94838591730275    1.57249233183569   12.11877113257903
H        -3.83494603977890    1.45675477677480   11.51450549226155
C        -0.56545773099064    1.75380937916218   12.37908642937839
C         0.24615038436515    0.06697812179949   20.56126079421910
H         0.75143627861793   -0.25407045106288   21.46066614818709
C         0.15895067654603    3.07373855165061   18.24752043195706
H         0.82991721104166    3.67233413810365   18.86367090994814
H        -0.78185130769936    3.62253556608992   18.08258898400990
C        -1.69977358299339    1.59159819146902   11.55734246296393
H        -1.56541222805549    1.48843808582174   10.48996491413816
C        -0.65734473460543   -0.77105794839423   19.93588065361386
H        -0.85986617638560   -1.75155560181389   20.34391762434062
C        -1.30322545785585   -0.35715111836844   18.77680754169767
H        -2.00644409721836   -1.03534485764505   18.29847055029286
C        -0.13428963148271    1.73825029150284   18.87525126666386

