89
CSD_code = VANREJ | q = 0 | S = 0 | Stoichiometry = C34H36F6FeN4O6S2 | MND = 6
Fe        2.89123641979789    2.89151326487908    7.95790104510510
C         4.30286916053643    5.24342272844025    8.34240709145914
H         4.48660529761493    5.09844406130475    9.40846775652430
C         4.64018564370614    6.69599081663172    7.96628222377542
H         4.51748339167744    6.83211602733095    6.89173834066824
H         3.97101792340556    7.38595294479569    8.47665114033697
C         6.08440964920029    7.02906967939959    8.32496148729230
H         6.23136724657232    6.92804923388562    9.40167244335349
H         6.29733193065016    8.06447450451696    8.05599059793737
C         2.02208506594820    5.13182932419416    9.26933021211356
H         1.00693372429384    4.97240494237086    8.89213847736382
C         2.11634807272304    6.52708384846258    9.84182779986956
C         3.02943368448819    6.84953352585187   10.84271375550654
H         3.67539666786572    6.08501085267542   11.24807626599515
C         3.10825650608286    8.13832904946567   11.33959771651539
H         3.82163622513018    8.37083303182900   12.11600383976560
C         2.27193509197498    9.12690715181325   10.84866264953892
H         2.33459814199299   10.13223799461416   11.23628196447929
C         1.34340839396000    8.81327323981365    9.87109079689441
H         0.67415391449148    9.57358909955513    9.49769846914372
C         1.26259555275281    7.52236306470220    9.37723749316321
H         0.51800610989126    7.27976515215242    8.63410328373146
C         2.32314315699795    5.44316201569977    6.91080551762780
H         1.37130953146527    4.95028993160420    6.74985328988677
H         2.95935657438781    5.23463316658259    6.05745323119404
H         2.17025913595601    6.52084335291816    7.00295010222316
C         2.78025498833097    1.85698622460944   10.59654222008123
H         3.17028759113930    0.96739427328556   10.14067979776480
C         2.31051819851819    1.86259448793551   11.89522720455734
H         2.35252482928598    0.96050428141793   12.48232675971542
C         1.75851548664288    3.02828830502897   12.40062126669744
H         1.35887425248376    3.06755257581496   13.40174050026808
C         1.70050246029432    4.14013956222583   11.57751723568841
H         1.24492858303007    5.05759765815262   11.91352179473321
C         2.19328119899730    4.04320245649749   10.28670164743808
C         1.67131501898797   -1.34564739004237    8.18946717987658
F         2.30075358970836   -1.27813465747609    9.36768044054030
F         2.16123766857744   -2.45082610571638    7.59253358983070
F         0.38598376208557   -1.58537377754143    8.40315718205219
N         2.90330146103030    4.85928472602252    8.10760257360415
N         2.73085122861161    2.92316966830280    9.80826690911180
O         2.82938971712267   -0.42171045163364    6.03186201137225
O         0.83969894131985    0.76941235412704    6.70139969530047
O         2.96276609786736    0.92664061933052    7.97904260365988
S         2.06728276506176    0.15736470503232    7.10812881489576
C         5.24188605413259    4.30449229200590    7.57165644952310
H         5.09585361060835    4.48703882370486    6.50551972190500
C         6.69445790789521    4.64339786140131    7.94635939494006
H         6.83149243115805    4.52181250010505    9.02091850771682
H         7.38463777338826    3.97436558982497    7.43611250993031
C         7.02599071002826    6.08759180942851    7.58609298972171
H         6.92385436408771    6.23352109167118    6.50934593118925
H         8.06145797952121    6.30162330906822    7.85392385472762
C         5.13167165526419    2.02261954730749    6.64726530990185
H         4.97124206052062    1.00791120624009    7.02526104770310
C         6.52739837339726    2.11518799151627    6.07568698393471
C         6.85158297766542    3.02718486669693    5.07437596259313
H         6.08809763990681    3.67378493972240    4.66808858775591
C         8.14084871472146    3.10422399432516    4.57840903061822
H         8.37471489895953    3.81675035699145    3.80163040036284
C         9.12817425197905    2.26726617909132    5.07078326243335
H        10.13387230800671    2.32856038558318    4.68389704313918
C         8.81283144803082    1.33989631778510    6.04890104836536
H         9.57217134833801    0.67020119073550    6.42348719511512
C         7.52144291425720    1.26080856534104    6.54177136684234
H         7.27748231955980    0.51707278621833    7.28531227491574
C         5.44371221801229    2.32644716261518    9.00534256558124
H         4.95180335239286    1.37430150191442    9.16742192955608
H         5.23482243184055    2.96332731100413    9.85811458168155
H         6.52151823380627    2.17447218248682    8.91307271490626
C         1.85710047704551    2.77970270005021    5.31901792320417
H         0.96723361010510    3.16935279313715    5.77466522073797
C         1.86316544030058    2.30978317516654    4.02038869468873
H         0.96114255223993    2.35122651737158    3.43314837982916
C         3.02924366555683    1.75838705108967    3.51524067785692
H         3.06893277177820    1.35874317347394    2.51413954794495
C         4.14096016880401    1.70093212006196    4.33858404502388
H         5.05867385186102    1.24572523869792    4.00278736050892
C         4.04353424519958    2.19370491127981    5.62935140515376
C        -1.34534061795786    1.67068855637206    7.72647756417573
F        -1.27736284241928    2.29750459845268    6.54695809443459
F        -2.45041710577091    2.16266542207316    8.32188110675771
F        -1.58594061548090    0.38507771334863    7.51545158451836
N         4.85900422511431    2.90485149867638    7.80812420064315
N         2.92315725563276    2.73092341516560    6.10748193063509
O        -0.42195373830563    2.82917972473906    9.88405111091712
O         0.76994551319317    0.83982898747319    9.21483461103063
O         0.92639986595263    2.96270293765371    7.93686274782169
S         0.15737324703856    2.06709818201786    8.80788671041746

