36
CSD_code = VANVIS | q = 0 | S = 0 | Stoichiometry = C18H13N3OPd | MND = 4
Pd        1.66040457929212    4.79263155640013    8.70393953441122
N         0.71081061374940    5.00414734135998   10.39319837482078
C         0.09326433409119    3.61466088267274    8.26348365138230
N         3.04737496464730    6.13325519898435    9.70447852950587
N         2.57298329509361    4.56846786209931    7.05325341847917
C        -0.81112382867986    3.55715040854242    9.34205637598193
C         1.30049523832028    5.81778068399393   11.32243047855728
C         3.24009257360868    7.28047263047998   11.83178324934021
C         1.49402566136361    6.96270704533151   13.45027824269589
H         1.07028948942081    7.16492720702592   14.42328220852125
C         2.68768792625099    7.54268710575516   13.09617282119122
H         3.21344388329538    8.19946913057615   13.77276564897118
C         3.84573464093621    4.26877306369421    4.82267689910723
H         3.22839612728294    3.69539556264407    4.13096482912272
H         4.77963876122356    3.73355471171122    4.99512427059846
H         4.06478566471306    5.24176270954749    4.38269208199161
C         2.54975851453315    6.41514317540991   10.93593118644260
C         0.80384497110491    6.11429485254540   12.58843434235668
H        -0.13057713159087    5.67539607642323   12.89623922601113
C         4.45945071522347    7.83427433034787   11.39079539066989
H         5.00517233745784    8.49495909390048   12.04936373612613
C         4.18977512883547    6.66817348007844    9.32561935090290
H         4.54674432038085    6.41287681697900    8.33312023623628
C         4.93303157656435    7.52988381503664   10.14270609701036
H         5.86299424155570    7.93909363860804    9.77917676709739
C        -0.21941389210458    2.88898629669600    7.11806323717998
H         0.44446075298476    2.90173064855832    6.25936982310296
C        -2.26165486977911    2.08950732146750    8.12087321798779
H        -3.16474548760121    1.49971760511002    8.05664076717952
C        -1.97472565309613    2.80215416887846    9.27093287026183
H        -2.63638990477618    2.78924737842004   10.12499973770591
C        -0.47576163778668    4.34231550999249   10.56836023425590
C         3.14626440943663    4.43941009325797    6.06175597981860
O        -1.18034347919414    4.37033136206364   11.56649153313908
C        -1.38573540950159    2.13536761532424    7.04971062679555
H        -1.60935342725518    1.57969362008376    6.14903502504104

