101
CSD_code = VANYUH | q = 1 | S = 0 | Stoichiometry = C51H44CuN2OP2(1+) | MND = 4
Cu       16.96282850263083   10.44774423010278   13.07667641185103
N        18.78158098477786   10.59151965482813   14.02422840812330
N        16.34432459634561   11.14409872101997   14.91197147375633
P        15.94809052195132    8.38902354213843   13.16632850647445
P        17.10572039517225   11.21565660507159   10.95021134765145
C        16.96281056231378    6.98111034066076   12.64318029909745
C        17.17066630964540    5.77607791358656   13.29715037006160
H        16.66613818741610    5.56828692422165   14.22898621560546
C        18.03428291175330    4.85119355091088   12.73658521371503
H        18.20322288419511    3.90905037554001   13.23489955043797
C        18.67924376774744    5.11130178541544   11.53762642651000
H        19.33716456614780    4.36053119405436   11.13231244592773
C        18.48293008501346    6.30670719546587   10.85594530962821
C        17.62037439894779    7.22753597412626   11.43631372323198
C        19.06847916474041    6.63277935730714    9.49305168489146
C        19.24353877231262    8.14003208031395    9.40287163688770
C        20.21571363694043    8.76886579725323    8.63465816527093
H        20.94615989762429    8.18210401494028    8.10303615619774
C        20.26785463141129   10.14938058707224    8.53004151957035
H        21.03613356584760   10.60724099177292    7.92644774735377
C        19.34328870288601   10.94590513296252    9.18154331449194
H        19.39034709004238   12.02106554594816    9.09841183120302
C        18.35712477951257   10.34914506781623    9.95415832226088
C        18.33097031275495    8.95592354168874   10.06461113214811
C        18.02211983759295    6.22558462252225    8.43474471341807
H        17.07335980655189    6.72895833665415    8.61360340081600
H        17.85265044458962    5.15200835921995    8.47252743935283
H        18.37340099988056    6.49111143461072    7.44017155154865
C        20.37183570894299    5.88046931356004    9.22618108010899
H        21.13412238276888    6.15528077112042    9.95183559976748
H        20.73835159714782    6.09774140184559    8.22727969036674
H        20.20718665239036    4.80830402602658    9.27624125097381
C        15.37597366094126    7.89964052792108   14.81882929780038
C        14.03678473914379    7.77479267535325   15.16668842626590
H        13.27165857523491    7.87251932843776   14.40949430144051
C        13.68932678638354    7.51490179151777   16.48113739916393
H        12.64853278682702    7.40759456858127   16.74805773694103
C        14.66900608172392    7.38989086819849   17.45190109887974
H        14.39260516112514    7.18279800075000   18.47469459624658
C        16.00615671420015    7.52799279818420   17.11154579202855
H        16.77041888926280    7.43171776099521   17.86862362852809
C        16.35815914915551    7.79167612202556   15.80292033768834
H        17.39855949651707    7.91260744962903   15.52437101625820
C        14.47698436941404    8.21273382762467   12.11323536958198
C        13.65842996111346    9.33061078688953   11.98063804694290
H        13.93731337875768   10.24803884356265   12.48369958013226
C        12.51268308222896    9.26811027827915   11.21127503409772
H        11.87205416446638   10.13241129751433   11.12367115457523
C        12.19332514272756    8.09496179313882   10.54683077954929
H        11.30289036154732    8.04531033488369    9.93892660293882
C        13.01588435263842    6.98600208090548   10.66018403570354
H        12.76607880157114    6.07350528533695   10.13957164915008
C        14.15374683024303    7.03691797920922   11.44559565769404
H        14.78774811789048    6.16661885722984   11.54186390694714
C        17.58080252188415   12.95922270976982   10.74951695467747
C        18.13339678135630   13.60388669793242   11.85090151584000
H        18.23795422473631   13.05726896459754   12.78073132781545
C        18.53062493500811   14.92553064114306   11.75579783722215
H        18.95928852666178   15.42497472103888   12.61196977522339
C        18.37110648622170   15.60877920974710   10.56131263648122
H        18.67793603950553   16.64081498310009   10.48552816179233
C        17.81158985732801   14.97237537261513    9.46359624602852
H        17.68438384344728   15.50954651827927    8.53571217333655
C        17.41472456018662   13.65102033340293    9.55250314944389
H        16.97257877751905   13.15326588597473    8.70036324808713
C        15.61160962759621   11.11428602039154    9.91628449638473
C        14.60561135689887   12.04053392666221   10.18774424495260
H        14.76563748368938   12.78570672910263   10.95703774606018
C        13.42647910511184   12.01600874731852    9.46993494421531
H        12.65743216726936   12.74721296643507    9.67090545019240
C        13.23149724438655   11.05246249220403    8.49209561262245
H        12.30993475344906   11.03172191273014    7.93060545124248
C        14.21979544747742   10.11819761107683    8.23479195661170
H        14.06762274270579    9.36708881062449    7.47408376616430
C        15.40925869443508   10.14596161460071    8.94153573301769
H        16.18061163975919    9.42308551341516    8.72224498375513
C        19.97598848990987   10.54462277929371   13.45339206143745
H        19.99471096205453   10.22348806006035   12.41950118390176
C        21.13483328861589   10.88341798167207   14.12156745714125
H        22.08822115242360   10.82613449174984   13.62099813413581
C        21.05736268701516   11.30755488167692   15.44989121097981
C        19.79899729968389   11.35705063774772   16.03554417836762
H        19.68966319812076   11.70436474536416   17.05080935123456
C        18.67844890441879   10.98766199954172   15.29777333835063
C        17.31139119584622   11.02123973105034   15.83140314668672
C        17.02210196543054   10.89852363936541   17.18577422767462
H        17.81912078020224   10.76938631352833   17.90105294766851
C        15.70090078283500   10.90368597955642   17.61394124568907
C        14.71271605927351   11.05210270826961   16.64102834892108
H        13.67105205196152   11.07438842782578   16.91837417361308
C        15.08147138320482   11.16486451854808   15.31666899221936
H        14.33723233303120   11.28535344971355   14.54145213174196
C        22.28657869101917   11.68990194251021   16.20161677520235
H        22.04130833308413   12.11326038455327   17.17157586809680
H        22.86775470761191   12.41461452382553   15.63452609240192
H        22.91583646736011   10.81342320011783   16.35346429016508
C        15.34556058911182   10.77259501415682   19.05546224473690
H        14.46633136068277   10.14428239880932   19.17609664809232
H        15.10993738521447   11.75454744362598   19.46644978624225
H        16.16853721430943   10.35301978988829   19.62748898476933
O        17.36402863969949    8.45517092954778   10.89186238199117

