95
CSD_code = VANZES | q = 1 | S = 0 | Stoichiometry = C49H40CuN2OP2(1+) | MND = 4
Cu        0.32152556590900    5.43578469205749    9.59754391965361
P         0.63734394901447    3.62491734489958   10.92517253201374
P         2.32145698914995    6.34877689734936    8.94197903857061
N        -1.09413782640495    4.88026127189287    8.19759964799857
N        -0.97373746784539    6.98405616602596    9.80801875436287
C         1.09734009651027    2.12300703653984   10.01975910149818
C         0.50228651906144    0.87289277957592   10.09458747868922
H        -0.30265969063384    0.69562084376961   10.79193833767447
C         0.95528180636379   -0.13517700730654    9.26080533939195
H         0.50270731807343   -1.11334798870293    9.31164358771350
C         1.99107788567393    0.08881200792731    8.36745866112824
H         2.32211862643731   -0.72713405618445    7.74667475429769
C         2.60473639809740    1.33267912507149    8.26691499248075
C         2.12640494128611    2.33719420529867    9.09892881256719
C         3.80649598975971    1.63333505134471    7.38675193310438
C         3.76775869688576    3.10617520579361    7.01168452308273
C         4.33030610381165    3.63415423391969    5.85541721323117
H         4.78372618168898    2.97993412135644    5.12940928554455
C         4.33058980433614    4.99809637369486    5.61083255022373
H         4.78081580105854    5.37383901161686    4.70515897180307
C         3.76563462058840    5.88213789643422    6.51264629437900
H         3.76096519089915    6.94387879796243    6.31704232188319
C         3.19519871771539    5.38542379211836    7.67516653407667
C         3.20551227274236    4.00818122745181    7.90768621545850
C         3.86252556981896    0.72699035326330    6.15693991648941
H         2.98545247864619    0.87021261868545    5.52964522530704
H         3.91737142417575   -0.31562792607326    6.45533489178028
H         4.75283109405621    0.93522781549150    5.57135705407423
C         5.06906343899167    1.40740656799713    8.24415474299080
H         5.05133884598774    2.03677384273002    9.13258372363456
H         5.95955199536038    1.64830570989122    7.66817646764556
H         5.12517905694908    0.36797960688699    8.55933714966234
C        -0.70947248386673    3.04034715073831   11.99808491985542
C        -0.48495545766536    2.23120576878104   13.10766866044737
H         0.52403817402980    1.94032294445338   13.36540639944210
C        -1.55537005348389    1.80705088596015   13.87323769399339
H        -1.38398297823886    1.17814414965200   14.73389490024175
C        -2.84634638319343    2.18723927465321   13.53939782480353
H        -3.67763965695038    1.85320885742436   14.14131670961780
C        -3.07184118453621    2.99902039085903   12.43940550634496
H        -4.07771922554607    3.29863113127029   12.18501025238225
C        -2.00463625393325    3.42857139543031   11.67179509235774
H        -2.16065306798800    4.07256500366889   10.81436872066323
C         2.00663582154297    3.83010716820257   12.10346391694484
C         1.93995000063926    4.96060562628472   12.91358928507752
H         1.10343774300523    5.63927792619174   12.79723384673482
C         2.92130915035821    5.20061674896836   13.85450103770063
H         2.86074347372206    6.07026427843188   14.49120747280993
C         3.98633050281667    4.32224428599793   13.97801309704343
H         4.75589792858229    4.50813210329956   14.71145636691827
C         4.06383156705348    3.20553243083464   13.16339756745970
H         4.89390992147646    2.52177757491875   13.26242488566880
C         3.07601968768851    2.95263894712173   12.22764223280130
H         3.13391511054072    2.07150996286781   11.60395679294080
C         2.21393836935728    7.98988541246437    8.16073396314721
C         1.08423040841626    8.21434075171454    7.37742649119383
H         0.35919978169499    7.41706271517282    7.26261874167482
C         0.89863390572241    9.43183741904968    6.75102653382684
H         0.02131894478519    9.60081267015479    6.14410198469646
C         1.84204382654630   10.43547685965575    6.90551925791863
H         1.69880170835006   11.38936718308318    6.42131881948045
C         2.97142471491885   10.21428675891026    7.67735631748345
H         3.70955453282349   10.99433279416197    7.78849429763868
C         3.16183209505246    8.99646087936989    8.30647695019218
H         4.04506639820220    8.82651379909998    8.90544804233231
C         3.57682556110513    6.57320461928628   10.23784146830839
C         3.33466233228225    7.56340061996463   11.18866979670399
H         2.45003531536562    8.18059192658136   11.09628505820014
C         4.22745524545457    7.77221435628372   12.22086157309213
H         4.04439064935604    8.55379137226354   12.94322415957773
C         5.35879293507717    6.97846113783443   12.32712236319659
H         6.05860942582207    7.14146044015490   13.13228099502101
C         5.59134488369680    5.97843612925066   11.39881592815361
H         6.47181631839783    5.35907892895842   11.48214378398075
C         4.70606096075803    5.77262322349340   10.35553251346949
H         4.90356622016485    5.00029740900802    9.62706781190380
C        -1.19099467187002    3.69504278587215    7.61639490001737
H        -0.30849769128315    3.07044718015010    7.66147296916850
C        -2.34358804969892    3.26713886459806    6.98222501161616
H        -2.38070464669848    2.29745522547977    6.51364991113947
C        -3.44340165652035    4.11568770471799    6.96763073691717
H        -4.36358586228090    3.81332573381916    6.49202566606482
C        -3.34573837262318    5.35393596084358    7.57708434635611
H        -4.19182743668883    6.02142392929657    7.60208569088146
C        -2.14396503357726    5.71139597127819    8.18521440710471
C        -1.93276685690915    6.99011497805622    8.87198758256453
C        -2.64408561418695    8.14812532081887    8.56626207417914
H        -3.39409042891092    8.14031840804517    7.79188594994441
C        -2.35069489276729    9.31450692344060    9.24961539671235
H        -2.88271104103248   10.22640538237511    9.02697115726740
C        -1.36179636204500    9.29252859010347   10.22464070897742
H        -1.11262869787277   10.17895098600916   10.78457369821555
C        -0.70213422566205    8.10148525359924   10.46556519992436
H         0.06868934471492    8.02701266391632   11.22055970256061
O         2.59885293232302    3.61837910688176    9.06906488453310

