62
CSD_code = VAPCAS | q = 1 | S = 0 | Stoichiometry = C32H25N3PPt(1+) | MND = 4
C         4.97066737507888    9.38648380067595   12.22195407480418
C         4.91938182925963    9.77004081312132   13.55327088065502
H         4.49883222978400    9.10405647088357   14.29599178832334
C         5.40584355495217   11.00291489701188   13.96576456435390
H         5.35209177277504   11.27489795612655   15.00904612063918
C         5.95938756910999   11.88147610591470   13.04970812490292
H         6.33663395589448   12.83861220372673   13.37471008589782
C         6.02954128724282   11.52825103198951   11.71591730391490
H         6.46262523417612   12.21353642444882   11.00344620082262
C         5.54171450845577   10.29323458261591   11.29446300965503
C         5.57502240909798    9.84218256357017    9.90693884151739
C         6.09233241090813   10.51653010097170    8.79998088826624
H         6.53616357682826   11.49106410379134    8.91453816488970
C         6.03001366302612    9.91694881175639    7.55356206368001
H         6.42717654206502   10.42601672765364    6.68922439589333
C         5.45697513742663    8.66073379686391    7.41164034007972
H         5.39811209152988    8.17797484906356    6.45074739868620
C         4.95779584936866    8.03467483662245    8.54855212096011
C         4.32432724394008    6.72556673370882    8.57882956007807
C         4.03806895664379    5.80807463966446    7.59928480638092
H         4.21742455236545    5.82097451975314    6.54488731959235
C         3.35285720286652    5.05849731137735    9.54018520135775
H         2.91698301039471    4.41054095970111   10.27536242302631
C         4.73610869895794    6.22521009821177   14.46041376334216
C         4.40937615143124    5.45647311320193   15.57437963443196
H         3.40034232553547    5.08947399951360   15.70334737324565
C         5.38783394473097    5.14283502802003   16.50019247296195
H         5.13566303971398    4.55256396762916   17.36811989122240
C         6.69098847035001    5.57751973441991   16.31233477103417
H         7.44932710486392    5.32947433220539   17.03895698890851
C         7.02513054772329    6.31535214642343   15.18763095880493
H         8.04410412999304    6.63602090870327   15.03358149896886
C         6.05061633849856    6.63733323317207   14.26102531713803
H         6.29137382339299    7.20774402904544   13.36753214982246
C         2.26712322541686    7.77348656289942   13.93595529779777
C         1.64357505275608    8.63558444715270   13.03496882824944
H         1.95501322839395    8.61534474271358   11.98718036849580
C         0.66188515901884    9.50457118537871   13.46893106017360
H         0.17847532371796   10.17118319318679   12.77110576569978
C         0.30426017333957    9.52207067232476   14.80901279391890
H        -0.45977016292903   10.20212359593209   15.15282329894057
C         0.93135287836751    8.67620814038704   15.70901075493081
H         0.65698649267082    8.70057319415591   16.75265581919227
C         1.91246244421444    7.79885144607639   15.27810667265166
H         2.40765549614351    7.15131649230011   15.98606369748461
C         2.60830977438748    5.11186156792477   12.97541526997757
C         3.34768857411916    3.93932394308172   12.82550558937551
H         4.42753236678236    3.98125463433271   12.88552961830127
C         2.70383565928015    2.73436661894517   12.61241477220383
H         3.27949362859575    1.82665519287870   12.50923569760216
C         1.31922840405982    2.69235774651972   12.53644946685448
H         0.81671706505226    1.75093180457555   12.37550436022008
C         0.58185038502421    3.85760716945628   12.67104774255808
H        -0.49552337787907    3.82432672589459   12.61326236165985
C         1.22114159292855    5.06683129394646   12.88674132248154
H         0.64450364140110    5.97410580323253   12.99730559134482
N         5.02917774994899    8.62848601951334    9.74264604251794
N         3.88364680035539    6.22759658474278    9.78496132828765
N         3.42689418230475    4.76672723844571    8.22690474692565
H         3.09043636709426    3.92738701675569    7.78088992158568
P         3.51455984002941    6.67612736277213   13.20010360397150
Pt        4.33105149700933    7.69095477290693   11.33774770834996

