64
CSD_code = VAPFUN | q = 0 | S = 0 | Stoichiometry = C25H36O2Zr | MND = 14
Zr        1.40070340254429   10.92650876688095    2.72205997861957
O         1.44127102420908    9.00680990570784    2.18720422095815
O         1.79800648789008    6.92995600050326    1.50603651595414
C         3.72499236589304    8.18702460593807    2.22666015041229
C         3.91765326406434    9.42880885246384    3.01694837320969
C         3.83197892574378   10.64742518333217    2.42349593317320
C         3.46536266172133   11.87917202964834    3.09734697953903
C         2.19368431005638    7.99366504192927    1.93989303976722
C        -0.31218650234170   10.17044305433817    4.29444844921071
C         0.87987493391867    9.64518742100083    4.86742473067943
C         1.66116043883128   10.72813049828653    5.33859154098931
C         0.96698682756959   11.93210444974136    5.03643202298528
C        -0.27753070177015   11.59449362986747    4.42661959375764
C        -1.44392577168955    9.30390829605202    3.80907275218497
C         1.12813363541692    8.18321181823796    5.11261879696556
C         2.80565848562996   10.63146383223257    6.31094966901970
C         1.33356590004884   13.29933212592914    5.54889591260356
C        -1.47252217280992   12.51157562861029    4.49231212788484
C         0.66232676967502   12.87727895408226    1.33947304710306
C         1.78448768688969   12.35399393440962    0.63332866376803
C         1.43800030207967   11.06271498594672    0.15566156212041
C         0.10227324110039   10.79373174159630    0.54165377536417
C        -0.39646496244577   11.91879739526814    1.25831848907416
C         0.57749433221324   14.29988997988269    1.83207038732719
C         2.95433666086059   13.17681560082709    0.16013353244381
C         2.23284351679631   10.19412401619826   -0.77878159236744
C        -0.69326161513477    9.60231434529795    0.08686311701749
C        -1.87237399650544   12.20872292124065    1.36287710846976
H         4.07414119780493    7.28752590737009    2.73449349195439
H         4.21036854293569    8.23771727063501    1.24733755985052
H         3.87879614204632    9.34005715837926    4.09728681322448
H         3.99019879022118   10.68156309213639    1.34268348451917
H         3.81395537646911   12.78696156689425    2.60103798506613
H         3.76767263878356   11.88463523272611    4.14786797172938
H        -1.80520462234138    8.67053143756921    4.62277906512635
H        -1.10914364477249    8.64681913924569    3.00151850962258
H        -2.28403912221184    9.89911006178390    3.45528230126879
H         0.51311339854442    7.83617036722571    5.94720313083706
H         2.16913097148447    7.99221564940394    5.36641323626441
H         0.87031605142218    7.58282855777548    4.24019431001522
H         2.40520507740223   10.55494795623478    7.32541672198774
H         3.44175637541599   11.51446270414361    6.27982324215494
H         3.42433626661099    9.75193840989987    6.14164066217401
H         2.39179583154252   13.51623595790635    5.39955789083066
H         1.13017236025165   13.36780754241125    6.62059179924099
H         0.75114586180922   14.07140469285124    5.05006952913884
H        -1.68248153132662   12.73126860977134    5.54271462096301
H        -2.36072233765968   12.04618612323843    4.07629165894066
H        -1.30506638759665   13.46423417830139    3.99345307424352
H         0.70608405553287   14.99474897067454    0.99906849634608
H         1.35429669941111   14.51589110879396    2.57107471129480
H        -0.39149494262658   14.50772326187706    2.28051145966307
H         2.75307177410827   13.53462577064015   -0.85332015501711
H         3.88338117994995   12.60882100596122    0.12344734429124
H         3.10603303547599   14.04981049606600    0.79171653418880
H         3.25741652290469   10.54713836069608   -0.88482821676808
H         1.77622866792188   10.20374457352312   -1.77148482164702
H         2.24745652631841    9.15668757984152   -0.43975895354573
H        -0.84649016342173    9.64484620426986   -0.99429676249490
H        -1.67018885877419    9.57486467470131    0.56520608043216
H        -0.16876192719716    8.67144570486195    0.30830895647150
H        -2.28011577104267   12.28983112761263    0.35166789849941
H        -2.06876075837002   13.15066125111040    1.86597676634246
H        -2.42273272748155   11.41723327801987    1.86834472455460

