45
CSD_code = VAPFOI | q = 0 | S = 0 | Stoichiometry = C16H20Cl2N2NiO2S2 | MND = 6
C         8.64336702728165    8.94967738020946    9.02940288878101
H         7.68967971844203    9.29642829384968    9.41172503497357
H         8.55705367456867    8.73031714963673    7.97265704993237
H         9.41386968469601    9.68745879665578    9.21711730599382
C        10.66770871977493    7.14239463553697    9.11940133290937
H        11.06796431688238    6.21253408785615    9.50738311805205
H        11.32249181018135    7.96939269807506    9.36507001274979
H        10.51645430541530    7.06285140476111    8.05033277209653
C        12.14990607142295    7.47859884241433   13.39277262957868
H        11.68181564373453    8.44831487739703   13.26826203889287
H        13.10215118482774    7.45522179973010   12.87683858116249
H        12.26844963950848    7.25550200707433   14.44557889508129
C        12.02698182138560    4.78884421519837   13.06493577024436
H        11.49868427508699    3.92091378372464   12.68703839081149
H        12.11837275427435    4.73443352541017   14.14254594132161
H        12.99716067680676    4.87176784160112   12.59047006629576
C         7.55802091382153    8.59329020399706   13.71059313890888
H         8.15201112216900    8.97460576767639   12.88915539562880
C         6.93964669232804    9.45609364487121   14.61716059982861
H         7.06067358481735   10.52200526393639   14.50368045226077
C         6.17612709673023    8.93203729074641   15.63233293389213
H         5.67206343788977    9.57083413462870   16.34306036704903
C         6.04688166875849    7.53797507407387   15.73782236580122
C         5.26153193799028    6.90842123926481   16.74618633092357
H         4.75543250448742    7.54091565892386   17.46101486232061
C         5.13866016078033    5.56068207962780   16.80305140359620
H         4.52977905901731    5.09181877409769   17.56258020573852
C         5.80570199877440    4.72430165712130   15.86409955549790
C         5.70846036480290    3.32241777087149   15.87303016446380
H         5.09873466372494    2.83603543813833   16.62172709851657
C         6.38950813083459    2.59758661249397   14.92649402416988
H         6.33113771671655    1.52065292417500   14.90012672195723
C         7.17814632774909    3.27696932161922   13.98862150572361
H         7.73670702426774    2.73888661427373   13.23433879026667
C         6.61097242858125    5.31122775595859   14.86369302161555
C         6.72054845651546    6.74077474357754   14.78683238834904
N         7.28850646550630    4.58267726851631   13.96180336243957
N         7.44952426986480    7.28354293749274   13.79295815236340
O         9.40041899880980    7.89021413509972   11.28829201405242
O         9.91213074663550    6.21240730770196   13.62434048024146
S         9.03568398006846    7.39183511023561    9.93229321019071
S        11.01115820561488    6.25267492108200   12.61812974824559
Cl        6.51775913358574    6.42963993719799   11.33981833286594
Cl        9.16210729963751    4.74960349619169   11.22426760031692
Ni        8.25145428523064    6.15182157727764   12.54586394389689

