58
CSD_code = VAPJIH | q = 0 | S = 0 | Stoichiometry = C28H23ClN3PPdS | MND = 4
C         6.14309025104782    0.26284150966621   13.25809782513539
C         7.88195925235839   -1.52832673525449   13.01891202644634
H         8.17854118261364   -1.90176760035724   13.99953302686676
H         8.22880544698113   -2.21238477375011   12.24945332525602
C         8.34833445290565   -0.08875504839437   12.78650277912798
H         9.25609763960545    0.13514891628242   13.35855668509607
H         8.55453108843212    0.09128042357185   11.72219861231937
C         2.86989502893455    1.21754868305875   13.42705956156848
H         1.83349648448454    0.94186720124006   13.42185695035148
C         3.43559595410255    2.52698152031651   13.40985857832452
C         2.94775165321184    3.83016713819068   13.34169357972003
H         1.88710284905779    4.02810205664087   13.32430277329081
C         3.87865902206179    4.84218409650340   13.28173846226671
H         3.54652105988577    5.86775307776487   13.20446856560670
C         5.25481085921357    4.59094045803947   13.33814696756042
H         5.91453671602076    5.45034573037790   13.28722339515894
C         5.79762698565748    3.31501958349243   13.45767438538998
C         4.82939246400800    2.30950379393728   13.44867014789323
C         6.76804624417239    5.25006533775628   15.87565474849757
C         6.10031157210515    4.20389771206861   16.51157569728105
H         6.45316186886552    3.17952595324351   16.35058644276931
C         5.00677867211430    4.46070633231935   17.31448968635909
H         4.48954357032090    3.64955464131318   17.80515341054567
C         4.56685055732223    5.76598000988494   17.47766852178033
H         3.70490826964585    5.97011300130994   18.09526226160374
C         5.22457953889405    6.80628089433702   16.84407341324160
H         4.87446915633350    7.82061887087343   16.96821876891089
C         6.32804526731945    6.55415953924824   16.04557552782646
H         6.82856055781087    7.36779149706449   15.54174256426574
C         8.53454724472878    5.95295274123840   13.57038333559800
C         8.46772575994561    5.52530029691893   12.24647067958884
H         8.17936898178819    4.48666017686336   12.04223792813050
C         8.77215695544311    6.39976900511629   11.21929282298133
H         8.72188177601765    6.06889216431412   10.19262644403680
C         9.14849510912912    7.70153090315824   11.51134067175694
H         9.38461059021197    8.38665063359491   10.71072013370249
C         9.23997256574620    8.12295691274373   12.82868054046551
H         9.55159217687695    9.13289271487852   13.05166797034136
C         8.94386872604937    7.25041847364992   13.86062000033578
H         9.04892404173855    7.56565171225840   14.88980149594704
C         9.58614337637202    4.93138908467044   15.96709929144118
C         9.43538151566487    4.97098969363847   17.34808751510361
H         8.45002678417018    4.89994388880576   17.78808644264099
C        10.55026787476970    5.09736604413719   18.15884730674860
H        10.43011940556124    5.12783235571112   19.23206179027251
C        11.81392881628111    5.17521777516263   17.59929037608288
H        12.68148083652742    5.26641616293868   18.23613118995766
C        11.96751635639768    5.12529904718322   16.22223669044782
H        12.95397968734600    5.17295573454966   15.78536449960142
C        10.85986737391509    5.00216311307750   15.40717019248788
H        10.97246588439635    4.94095994487293   14.33272655321190
N         7.29570084510708    0.81989768688161   13.18923699451656
N         4.98523879564162    0.93264610219742   13.45427216441399
N         3.79211846379781    0.30005272986520   13.44229677055616
P         8.17118817320442    4.71037695239313   14.84598299429362
S         6.05230607458162   -1.46572211441141   12.98318190539422
Cl        9.78255563137190    2.06528606474306   14.66752841364736
Pd        7.68496651174164    2.74641017809246   13.93990819583476

