56
CSD_code = VAPNAD | q = 1 | S = 0 | Stoichiometry = C27H25ClIrN2(1+) | MND = 8
Ir        3.19978459860155    3.59476711641270    2.86788356283899
Cl        5.08726631397063    4.33918513802452    4.05833670375388
N         2.64285032594294    2.77301764504463    4.70123513682064
C         1.85207146566489    3.30294882667833    5.61802866420063
H         1.34047507000410    4.21996574341974    5.35931316541730
C         1.68131786497978    2.73485519136614    6.88099823574305
H         1.02155678415736    3.21376346762880    7.58619633749211
C         2.35873352009361    1.58311127771363    7.21326384404968
H         2.24886268095463    1.13136694431970    8.18707801368326
C         3.21331881354325    1.00166279470189    6.26323605860513
C         3.98564185775157   -0.17529642261837    6.49143219030399
H         3.89971407797845   -0.65960761908491    7.45191434391083
C         4.81366636951380   -0.67100205579859    5.53859195606287
H         5.40010867216824   -1.55723819741534    5.72589621440580
C         4.94587306212795   -0.03728277131800    4.26779361187686
C         5.80387196650546   -0.48173854936798    3.24955439639827
H         6.41104053766012   -1.36068498811678    3.40132672238219
C         5.86178658529992    0.22977127308975    2.07210011465417
H         6.51588517956487   -0.07579781295223    1.27160114514817
C         5.07310741988617    1.36861698550635    1.90942844563318
H         5.12927680153352    1.94357844260227    0.99699125676183
N         4.24644977626496    1.80434537305644    2.84457556217242
C         4.18308654487828    1.11968830633471    4.01047999438250
C         3.31654878762336    1.64173316253301    5.01181104200352
C         1.88036587503558    6.60543904479935    4.57677058254863
H         2.89660459342843    6.27004637101194    4.72817304808637
C         1.28411486276138    7.45761600862689    5.48819342344942
H         1.84341362767400    7.79757885037794    6.34627937190834
C        -0.02315970535009    7.87580708717795    5.29874291853430
H        -0.48607548363104    8.54323568347373    6.00879816387549
C        -0.73285687489209    7.44096155997628    4.19132788574396
H        -1.74743093210799    7.77351838233224    4.03429784005463
C        -0.14518236346398    6.58458243245368    3.27803311589510
H        -0.69330602468059    6.27129818409587    2.40278048793900
C         1.16798755984762    6.15648174501040    3.46367696911963
C         1.80892852092151    5.26602643144926    2.48734672207525
C         1.23337502064401    4.07338209351471    1.90114452481911
C         2.11921983391653    3.60889599044351    0.89109713576175
C         3.25756962132989    4.49578766077714    0.85235967032267
C         3.02341151773111    5.55842594931416    1.78570041962005
C         3.84874696431526    6.78770056066089    1.91625817043165
H         4.07979770558244    7.18081666355730    0.92734031257566
H         4.79235441840988    6.57407683286900    2.41822702319635
H         3.31993356848493    7.54338384087941    2.49191187585973
C         4.33027707795294    4.51832997610008   -0.18730456065163
H         4.41812962266080    3.56195333302614   -0.69612105863997
H         5.29054304024234    4.77882898095307    0.25289188406910
H         4.09120051937576    5.27371280564235   -0.93715259310644
C         1.84316000211615    2.49646629680315   -0.06211765541497
H         2.75951389496486    2.01848610369654   -0.40004103651341
H         1.33164726340245    2.89664172153818   -0.93883693172705
H         1.20062601582857    1.74209124479531    0.38510855228803
C        -0.11016542622614    3.50343346881831    2.21042314130824
H        -0.08845420148894    2.41518069085537    2.20957093048736
H        -0.82498048268011    3.81833579485756    1.44889101159508
H        -0.46740470876880    3.84754893835209    3.17796193578862

