46
CSD_code = VAPNIL | q = 1 | S = 0 | Stoichiometry = C17H25ClIrN2(1+) | MND = 8
Ir        6.68638789517604    1.72074956664811    2.35225950709669
Cl        6.77932178589586   -0.32019030251613    1.24325185356657
N         6.08630266599705    0.43455443453183    4.08124837934975
H         6.34481952828825   -0.51096919780018    3.78859442971916
H         6.58084089077481    0.62907229875625    4.94884472823472
C         4.63282357269636    0.48727123684435    4.29362106524128
H         4.38245405525021    1.44297942147088    4.76120267553277
H         4.28490897846057   -0.32095864001940    4.94428039009506
C         3.96056887468322    0.38170269422455    2.92637131114525
H         4.22900450765268   -0.57363915001001    2.46982365030577
H         2.87296117688537    0.43538379909293    3.02877180912926
N         4.48145784104673    1.45725159289391    2.06415360137474
H         3.99290328119024    2.32794970778933    2.26752085338708
H         4.29745289859290    1.22285822036517    1.09004831266967
C        10.48156352506478    2.70129987449340    4.52363167478297
H        10.32229397728811    3.76670554708577    4.58913637075593
C        11.50174271374508    2.10820574556846    5.24467593761934
H        12.12017343952783    2.71316018501685    5.88958623118387
C        11.73321423057612    0.74660350752965    5.13783207022523
H        12.52928913816080    0.28845265012679    5.70351106958658
C        10.94354829423544   -0.02456418779169    4.29980251320053
H        11.12242438901912   -1.08502105284064    4.21165363093377
C         9.92677561129590    0.56205928376574    3.57013933208501
H         9.30205942942631   -0.03746258519531    2.92340505612350
C         9.68475331810585    1.93175344216271    3.67749780493089
C         8.62575118429007    2.56066224178140    2.88122288275403
C         7.62211421738821    3.49424346643672    3.37015309214411
C         6.88725128101508    3.96252605191485    2.26267415685745
C         7.41008552108488    3.32217793280006    1.06751103425229
C         8.54090223305790    2.52923311430266    1.44943956279628
C         9.49930250886631    1.87771732421815    0.51834800694822
H         9.86809011719244    2.61359034144846   -0.19541523949577
H         9.02141406320939    1.07884836368996   -0.04672295250223
H        10.33899412837154    1.45745020991274    1.06572619552075
C         7.05613953020989    3.66646614235157   -0.33922604112162
H         7.70341891201623    4.47344162011297   -0.68592082685361
H         6.02585054978514    4.00124765216071   -0.42602990108162
H         7.20631744111498    2.81170465894647   -0.99395583035133
C         5.84002406945684    5.02135168624351    2.28810994609709
H         6.31525225701738    5.99410706516961    2.15425364051551
H         5.31384910842655    5.03902356964583    3.23958150024143
H         5.12066621452623    4.89380287895328    1.48276729784080
C         7.46756054993527    3.94363283688947    4.78304424437490
H         7.93074009032761    4.92315362806733    4.90760640873880
H         7.95102340349076    3.25062668955796    5.46708856803877
H         6.41880660018072    4.04308443320101    5.05697999600781

