79
CSD_code = VAPSOW | q = 0 | S = 0 | Stoichiometry = C32H33AuCl2NO9P | MND = 4
Au       -0.01867616925500    3.36198555048855    3.77326448503083
Cl        2.04504357340900    2.35882000496115    3.42410205434877
Cl        0.80841583664144    5.37676987873793    3.39828085837424
P        -2.39017880474541    1.41173568014421    3.63420959480097
N        -0.85293967624270    1.55678155014924    4.10599149128527
O         1.22044163268847    0.84662658555886    6.39976470028607
O        -0.60028923886308   -0.93729412285656    7.96204579791797
O        -1.01961667433584   -0.66861033161038    3.95914324440271
O        -0.66659181513082   -3.41864303601522    6.29392654377110
O        -1.08398024818088   -3.01555040351474    2.21902822028537
O         0.41529060283155    2.93680446981256    6.25826865740059
O         0.69037339855175   -2.58209568916956    8.78963575624058
O        -2.38065432959601   -3.39094981693677    7.74840624519360
O        -3.06285008170334   -2.18050514176612    1.55928889559998
C        -0.18801717279980    0.34707409576390    4.47775877533793
H         0.82297720039467    0.29069047059984    4.03790120576182
C        -0.03222781110949    0.29150687700867    6.02337770709662
H        -0.83923664039887    0.89377208837409    6.46234408611391
C        -0.07773948399540   -1.10535398526254    6.64846637299453
H         0.94026737405437   -1.51426954505770    6.71601729249834
C        -0.95539104393005   -2.09652675418347    5.86998169981025
H        -2.01332401627702   -1.87346731791958    6.06896819116240
C        -0.66677543460572   -1.96990752300086    4.37026960819039
H         0.40447974137274   -2.13848232103716    4.18339416518057
C        -1.47783430284281   -2.99660844300099    3.57874236793794
H        -1.27731496374567   -3.98961431911223    3.98878416377934
H        -2.54403863030003   -2.76154428520643    3.64709931683785
C         1.34116183953307    2.18167759658355    6.45443637162985
C         2.73957116005904    2.58906024316518    6.77538571184832
H         3.23793605110653    1.82675108052216    7.36532220160827
H         2.74245567311517    3.55262698833542    7.27602589663542
H         3.25982728073165    2.69186423269154    5.82123224067943
C        -0.16611912972896   -1.75341427313078    8.93933459701613
C        -0.92294421210885   -1.49245420160482   10.20710162001706
H        -1.10630797147265   -0.42886155286322   10.32279998117562
H        -0.37359923954501   -1.88828015135245   11.05557118242713
H        -1.88163631962010   -2.00354420748835   10.12641606644310
C        -1.41251909943689   -3.93705434688611    7.29271014787401
C        -0.84717797427822   -5.24945492439949    7.73592122897470
H        -0.00869407116031   -5.02973380144316    8.39667428197275
H        -0.47193252156675   -5.80718881853740    6.88377450843302
H        -1.59655715353836   -5.81661143844188    8.27886998610005
C        -1.95830142322458   -2.57741073954569    1.29984522289635
C        -1.37120980365573   -2.69848603234814   -0.07640054611105
H        -0.43550533027749   -2.14825315259395   -0.12038405461539
H        -2.07111166957690   -2.31104993080573   -0.80949179850144
H        -1.15728411368814   -3.74508156992226   -0.28120722195813
C        -2.88897577281172    3.12882207503540    3.77117874660375
C        -4.23094711784330    3.49489442067720    3.80047573581657
H        -4.99397795820683    2.73426211947789    3.70240733534212
C        -4.57185089178744    4.82313776148732    3.97031006531696
H        -5.61088259903874    5.11647598383195    3.99818740644181
C        -3.57231282671361    5.77103506586691    4.11256654246337
H        -3.82937707804989    6.80993522201636    4.25573509598509
C        -2.23443412145532    5.40356108579767    4.07173876653218
H        -1.46766558926014    6.15632958179885    4.16885518293304
C        -1.87481484527065    4.08008470198342    3.89507470954835
C        -3.43762164346586    0.47178310384480    4.76585512434690
C        -3.49093436193645    0.93493132675522    6.07735391710572
H        -2.99081446639976    1.86231134058985    6.32948694960790
C        -4.18028315310027    0.20830317832063    7.03002204526727
H        -4.21473845445862    0.55333120718056    8.05223024370340
C        -4.82353342048697   -0.96678759743634    6.67008343768706
H        -5.34831332996699   -1.54254557701153    7.41671042290060
C        -4.79180750862097   -1.40755915197194    5.35611385539431
H        -5.30402824123784   -2.31774871018090    5.08078851741112
C        -4.09499858686011   -0.69359079993173    4.39500647160292
H        -4.04657777280884   -1.03574404941674    3.37073001673251
C        -2.62777734048853    0.93505418646760    1.90715958095257
C        -1.50153800948372    0.86895905145453    1.09514706678948
H        -0.52041218512608    0.98637798446737    1.53596305456401
C        -1.64988020601997    0.65512932378330   -0.26262926301412
H        -0.77830649783567    0.60905402108107   -0.89884155475063
C        -2.91665610789976    0.50980817286351   -0.80538526549007
H        -3.03093917717549    0.34484301531650   -1.86683679444677
C        -4.03849953846022    0.58143691416272    0.00497576767042
H        -5.02304940486967    0.46770315267343   -0.42331219140929
C        -3.90018719052255    0.80484324109051    1.36164260899894
H        -4.77142939656844    0.87342343231853    1.99720727928711

