149
CSD_code = VAPSEM | q = 0 | S = 0 | Stoichiometry = C64H76Br2N4O2Pd | MND = 4
Pd       14.88556623981201   11.88640433313899    1.74764369512375
Br       15.83017952323034   13.86518332594996    2.78915642972119
Br       12.99279849391527   12.99542798349325    0.69361011344370
N        17.42791300973305   10.62156824869571    1.36242667452967
N        16.68227876878062    9.98279803362314    3.31087443666513
N        15.30828609742480    9.66396517042735   -0.18664836908108
N        13.60135485756349    9.30048246242731    1.12359533849206
O        15.96951791226902    8.21198033335411    6.84367665606104
O        10.47684386568114    9.83335391283439    3.87976351403512
C        16.45004082383366   10.80276427418643    2.28341684696950
C        17.83657637799616    9.26607796366021    3.08066235454175
C        18.48822686054377    8.31525791805725    3.84776257950275
H        18.11944654843575    8.03559164484888    4.82108947064634
C        19.63240011853972    7.75524087303867    3.31303723811812
H        20.17290531473273    7.01136472872421    3.87736437882612
C        20.10447612343390    8.13287182112506    2.05853913797529
H        21.00117748815619    7.67163653846457    1.67383715956189
C        19.46033706771178    9.08577077022853    1.29096078995029
H        19.85207210228031    9.36399129500373    0.32705262621169
C        18.31175317431842    9.66053640109321    1.81417830160030
C        17.25044729307361   11.22547910675429    0.05614671535755
H        16.65890157894484   12.15343405747292    0.23618464481395
C        18.50886800537581   11.66219173037673   -0.68155238400082
H        19.14016710106532   12.25081592292987   -0.01423685686525
H        19.07946278138845   10.80009554262011   -1.03110592484470
C        18.07385727005322   12.50117404858690   -1.88409078388907
H        17.54389118436144   13.38855515498415   -1.53209612986430
H        18.95256926809187   12.83596647794530   -2.43640261356092
C        17.16230038887381   11.69420445203140   -2.80780492999066
H        17.72899710790058   10.86672851717575   -3.24345223260291
H        16.81734965449808   12.32673141730471   -3.62614487358453
C        15.95483478584016   11.13354717320287   -2.05952936285112
H        15.32139295841587   11.94806471359229   -1.69079611849314
H        15.35040974624708   10.51595800424890   -2.72740794449323
C        16.42566387914711   10.29765672028401   -0.86423702555557
H        17.07490532792461    9.48308542039075   -1.21048720435976
C        14.51903826782623   10.21144019815903    0.76886751414280
C        14.86767916538999    8.38205648397858   -0.46027027238161
C        15.29568453319338    7.41204059278886   -1.35330259192896
H        16.12314901036503    7.57946931769806   -2.02494653610780
C        14.61037646503963    6.21141580350254   -1.35973563476496
H        14.91585008687563    5.43621877941306   -2.04542146670612
C        13.53161222752696    5.97937443105631   -0.50874617361113
H        13.02426741985003    5.02807222801345   -0.55329488063033
C        13.09297030592249    6.94046770074517    0.38120014499434
H        12.24937570955973    6.77455898859768    1.03026796989959
C        13.77499521238933    8.14692832506733    0.39203707912453
C        12.60192045806503    9.54448165004055    2.13141076198971
H        12.79921971840434   10.55815700162089    2.51711336048031
H        12.74273728697702    8.83817469626534    2.96042391140768
C        11.17999692733701    9.41798228513082    1.63816307832494
C        10.88402847888823    9.22332527831623    0.30128918868087
H        11.67729184087747    9.28337406517734   -0.42267441587256
C         9.58596021829247    8.96332636800999   -0.10510885864942
C         8.61270775814704    8.84252780895195    0.87954918698535
H         7.61636086706439    8.57750164911475    0.57368045874361
C         8.85441620833527    9.07751705648059    2.22690053703151
C        10.15530080410640    9.44971697821248    2.58915541135536
C         9.21089923127209    8.76576743961329   -1.56479198829351
C        10.40054706691190    8.97100738088030   -2.50702560883188
H        11.18349757741872    8.23800583716325   -2.31946168126108
H        10.81159352714666    9.97184581314722   -2.39898015328727
H        10.07104057178713    8.85179912438737   -3.53715899283330
C         8.68492876276399    7.33674854360736   -1.76016577203014
H         7.79817461334216    7.15500068444123   -1.15940051759336
H         9.44655619841321    6.61371942626712   -1.47387080215913
H         8.42804001650731    7.17212783289013   -2.80438721305234
C         8.12382002617252    9.78105500833075   -1.94194147552309
H         7.22457895925927    9.63882987724715   -1.34936041462603
H         7.85951524748495    9.67559075548020   -2.99197309802884
H         8.48613059766382   10.79289824522235   -1.77565216344844
C         7.76619545484810    8.87818389636836    3.27636477401504
C         8.26206663708640    7.83687112605048    4.29087444698406
H         7.51549195439573    7.68718152410548    5.06806120104311
H         9.18616380141085    8.16630211595763    4.75588546451119
H         8.43979489770384    6.88315548054408    3.79638015917208
C         7.46084597096663   10.19674996976769    3.99917250683064
H         6.54914715235517   10.09689027012903    4.58481699688110
H         7.32325969494510   11.00304026930475    3.28157428649519
H         8.26494985774492   10.45765691350927    4.67737209064460
C         6.45570267967066    8.36034455341414    2.67410741912933
H         5.74241743485887    8.18173918549713    3.47638837387621
H         6.60482756029729    7.42009899913060    2.14773387402053
H         6.01816956902444    9.08947795871619    1.99599103262245
C        10.78428463076098   11.23020910236401    3.99993773430850
H         9.88228601525472   11.75385903595432    4.35125018798492
H        11.04015241818218   11.65995043953781    3.02700779180055
C        11.88410775190972   11.45489897716904    5.00150333339698
C        11.76235434337889   10.92718396210103    6.28151009723185
H        10.89478801443221   10.33065536601680    6.52402191341118
C        12.73110921145682   11.17186682350310    7.23949660685920
H        12.62185019756242   10.75672830413351    8.23155944483485
C        13.82378983031161   11.96721987188884    6.93407629513398
H        14.57549081569230   12.17220390494944    7.68189183991239
C        13.94906105424434   12.50219223917202    5.66375036538103
H        14.78481136391712   13.14042923280116    5.42624081577118
C        12.99589460739378   12.23143600732818    4.69418646308905
H        13.09709331935418   12.68046598840318    3.70541658861681
C        15.82127024513691    9.82970469306342    4.45998506816286
H        15.52654921064077    8.77881707590329    4.51479562958006
H        14.92847681421195   10.45213495727476    4.27954137398371
C        16.52667925678297   10.26891593333280    5.71904351410609
C        17.14723067201879   11.50577700831243    5.70891314827205
H        17.04724233049682   12.12352793594393    4.83034182315901
C        17.88319095562898   11.94898091823919    6.79594647031000
C        18.00352879003237   11.08623898347835    7.87694239165002
H        18.59230283591260   11.40197417840194    8.71719749850527
C        17.39502412736893    9.83704141802153    7.93372385433282
C        16.60865134988913    9.44251948045920    6.84194849349465
C        14.55370956185529    8.22251847470862    6.72666345427171
H        14.18281674832899    9.24121565131937    6.57220734250767
H        14.13426453793593    7.86255036605578    7.68015714033467
C        14.05505425192686    7.31257914087708    5.63162681563443
C        12.76467522376072    7.47174379344101    5.13899470393739
H        12.14124259817832    8.26907141062613    5.51584680392179
C        12.27966773897983    6.61761609764957    4.16368921651185
H        11.27336672110338    6.75081887999400    3.79365796191162
C        13.08237685657009    5.60521527369866    3.66263892466407
H        12.70449570079806    4.93604322920095    2.90384883686954
C        14.37144683155317    5.44956395569830    4.14191964592959
H        15.00221231554847    4.66325574657436    3.75375674435127
C        14.85329687296877    6.29416075252626    5.12698724345750
H        15.85474402789109    6.17148434624456    5.51205199527247
C        17.61068215008353    8.91461178312317    9.12974704071702
C        18.55011914958353    9.51511282540110   10.18168918829285
H        18.13328313483044   10.42174209668879   10.61425720457224
H        19.52954027041555    9.73215021482137    9.76180789344011
H        18.68644286053712    8.79522176576443   10.98647099461540
C        18.24279786713454    7.60550725097664    8.63559481705967
H        17.59516628635329    7.11265545959112    7.91802664405301
H        18.40949025865867    6.93136622317332    9.47317675300056
H        19.20014142661021    7.80934753494062    8.15915307387540
C        16.27082896961089    8.62397163462992    9.81961903236677
H        15.74654806962656    9.55295403641677   10.03574690648149
H        16.44149447804584    8.09810048630384   10.75677853332463
H        15.64026556551894    8.00072556423689    9.19689488644510
C        18.52627009551775   13.32472478924647    6.75012510462131
C        19.34652721351650   13.63352498082801    8.00556393097273
H        20.15552574611913   12.91725596011313    8.13346931946529
H        18.71986052776268   13.63017227186767    8.89456730623245
H        19.78762613328396   14.62358183385560    7.91279399137984
C        17.42320048201469   14.38339601427238    6.61479826160020
H        16.69552348532332   14.28067413743550    7.41714279917217
H        16.91019598537804   14.29705061925244    5.66188998563120
H        17.85593414262918   15.37931353259858    6.66801880196185
C        19.45636944176253   13.40291967020307    5.53142341816101
H        20.19421030459666   12.60289711343221    5.56206432372687
H        19.97820707467895   14.35672877382562    5.52481386188951
H        18.89439559953898   13.32535206087632    4.60569348817576

