98
CSD_code = VAPSOX | q = 0 | S = 0 | Stoichiometry = C46H44CuIN2O4 | MND = 3
I         8.17969701447959   -3.15162968137317    9.54154029389129
Cu        7.89044488282628   -5.59120703165730    9.66716846758663
O        12.34019756558409   -2.58051663093632   12.85446417047101
O        13.20191867739405    3.74181447616271    7.85891529443521
O         8.21091594640428    3.95417935277485    2.52587929164750
O         6.01661965234851   -2.45544713360122    4.35700883612758
N         6.71422499798565   -6.99428379485851    8.81238201324333
N         8.46184724009705   -7.16082547866516   10.84276678271018
C         5.82501816987960   -6.84822682342541    7.83642119214058
C         4.86791922380494   -7.85059935048353    7.57183593213716
H         4.16926624746941   -7.70389887358742    6.76339549408995
C         4.86331476103803   -9.00951486657939    8.29952018946249
H         4.15456641618605   -9.79802062022662    8.09155621444125
C         5.80434063618242   -9.17741893649822    9.33369427091371
C         6.70507705230534   -8.11683206709655    9.55814463503688
C         5.87156521625407  -10.33908358568451   10.14602939935960
H         5.17431439877782  -11.14009033595686    9.94837127034050
C         6.77844601112081  -10.43659377161605   11.15181545567270
H         6.82296550637039  -11.31773732275736   11.77499499148879
C         7.67875371229264   -9.37499458537363   11.42677913006063
C         7.64918931380308   -8.21284049484061   10.62905608176663
C         8.60869610180770   -9.40197611161296   12.48424895674205
H         8.67278014947808  -10.27832679467188   13.11308350610226
C         9.41215061185775   -8.31569894345739   12.69908635688742
H        10.13975688541149   -8.31322913403357   13.49513672030109
C         9.32354800850906   -7.18998430326901   11.85297769160973
C        10.16920305267687   -6.02298232250272   12.08357534604487
C        10.42107570634554   -5.57879382385644   13.38467016788971
H         9.99633395845894   -6.10716583559578   14.22566791091807
C        11.15084406161030   -4.43604942299274   13.60331976152051
H        11.32379161923703   -4.06825967411868   14.60228431184376
C        11.66386536621891   -3.70032541197518   12.52892765019817
C        11.45709513281987   -4.16540848404781   11.23165000746621
H        11.85260382210440   -3.63405349280104   10.38189235736834
C        10.71138296454745   -5.30660390608458   11.01985024983323
H        10.56207046804676   -5.66206554692810   10.01052562009570
C        12.72812954156095   -1.68553758722241   11.82552894952718
H        11.87617074935761   -1.48718808015502   11.16595735823640
H        13.54657974626880   -2.12388495274557   11.23695522858335
C        13.19629567372741   -0.40129360808130   12.50352255985089
H        13.89959544053850   -0.67474943614503   13.29248080472647
H        12.33583662796071    0.07530115693749   12.97522236399649
C        13.86663523657854    0.57358304169182   11.53878753369871
H        14.18970967119654    1.44877092868195   12.10629307793114
H        14.75873367496535    0.10993240477364   11.11184792716632
C        12.94256259236103    1.02804017047834   10.41046236446691
H        11.98107139702758    1.33179594212655   10.82855160576083
H        12.75768700124806    0.19836552119089    9.72647148956206
C        13.54368631473979    2.19431583843685    9.63097195657968
H        13.62525061960143    3.07257172757225   10.27336309324336
H        14.54770828453126    1.94046964650922    9.28662988796555
C        12.68422230364690    2.55572891734275    8.42492896902787
H        12.70553410409099    1.73958329138536    7.68985152846493
H        11.64282818446773    2.71295374503193    8.73892200526315
C        12.56669475447746    4.27583300508435    6.78140456200113
C        13.08197098366661    5.51701106426806    6.34153921187195
H        13.92172412647897    5.92967698824398    6.87823480412982
C        12.52194715476902    6.16220140409893    5.28014968329812
H        12.91408465245107    7.11460584903609    4.95301794991586
C        11.42401089678092    5.60728461065069    4.59096322764410
C        10.91714568700667    4.35424949594753    5.01610660656486
C        11.50322902431042    3.70803593323674    6.12371930660794
H        11.08835569105660    2.76164628986126    6.43416477839150
C        10.80919334017471    6.25005570362747    3.49694888870267
H        11.19089230027427    7.20829361665017    3.17466270772244
C         9.75340459580332    5.67927703517926    2.85203065128095
H         9.27184826782536    6.16015444006345    2.01508162775222
C         9.25674573974426    4.42008346726357    3.26118070013080
C         9.83339881762836    3.77296445825582    4.32560514465323
H         9.47433761658841    2.81318361208408    4.66383629762662
C         7.73958278024508    2.64271242206768    2.76239010604687
H         7.37746698112993    2.54492463239172    3.79351264242589
H         8.55505988111607    1.92196777537548    2.60675953567470
C         6.61253147751281    2.38779752817128    1.76452775354260
H         6.91643124135615    2.82635541797357    0.81189763624449
H         5.71500533452267    2.91158528765072    2.09726441257106
C         6.30867732008863    0.90683330035452    1.55721921316679
H         7.20254555350043    0.40304081864564    1.18307645376747
H         5.53835313100868    0.82506477150372    0.78635263638605
C         5.81909315144686    0.19330583679419    2.81687657862652
H         6.63356234016180    0.08706572515885    3.53318084759294
H         5.02869482473316    0.78238289880480    3.28720627128936
C         5.27685781536417   -1.19096008913893    2.46900686582843
H         6.04309245510265   -1.75870205173036    1.93816461463336
H         4.41206074068579   -1.08814902703763    1.81024493106714
C         4.85360081300750   -1.99728094689795    3.69315084393468
H         4.24960919332527   -1.37920603972465    4.37098557999540
H         4.25215184074195   -2.85687589271059    3.36747166790020
C         5.89878738442868   -3.45770763745874    5.25646313759722
C         4.68811952223833   -3.97248399545260    5.71738142434963
H         3.74894867408930   -3.52887528710662    5.42721677481792
C         4.67650749761772   -5.05981761058006    6.56697974899967
H         3.72778341635963   -5.43385614207450    6.92429107687404
C         5.86111347222867   -5.65061651809230    6.99933840616083
C         7.07184350718125   -5.09119918805958    6.58347004899786
H         8.00093778703661   -5.53209147823574    6.91347920731316
C         7.09180297864970   -4.01874024194561    5.72385196221510
H         8.02355752048173   -3.59179914578752    5.39050874778532

