65
CSD_code = VAPTUB | q = 1 | S = 0 | Stoichiometry = C28H30Cl2N2P2Tc(1+) | MND = 6
Tc       -0.95546066917691    2.41632854005981    7.00155453954394
P         1.37218003848141    2.67221127588070    6.40564341216934
P        -3.28868986204612    2.15289217399388    7.57881817876088
Cl       -0.70368310298456    3.86635567080912    8.68759417241802
Cl       -0.45146557976988    0.53812793959835    8.11264916499857
N        -1.45430465053654    3.91901415752952    5.67399163366268
N        -1.28446182573846    1.37892050683290    5.24486561535951
C        -1.72355156355711    3.52276413577809    4.40554137698043
C        -1.63792542935208    2.12966333851152    4.17209146902208
C        -1.19724755540605    0.06337009238688    5.04758057944916
C        -1.44876733245833   -0.54352695113193    3.82266004571818
C        -1.80873278239321    0.21636721238774    2.72975612602537
C        -1.90976219678397    1.60482188070239    2.89353326906093
C        -2.26192751631710    2.51012374386116    1.85224841745530
C        -2.33252793948587    3.84541833840223    2.07319620099904
C        -2.06545961641505    4.39908040239397    3.35763193117748
C        -2.12444549377705    5.76778860873913    3.65326811100911
C        -1.85091344409496    6.16685244557613    4.94399422029210
C        -1.52509417578845    5.22757974958362    5.91518295081519
C         2.41005824548779    3.76994221586102    7.42418047028854
C         2.39016909364573    1.15975825185181    6.34510602941958
C         1.47990988085224    3.36235724746701    4.72809159691274
C         1.40255423492476    2.52395930535360    3.61942834861305
C         1.33045021041198    3.05495638489579    2.34453929337489
C         1.32014132072344    4.42785447069585    2.16281503684447
C         1.39182318411366    5.26899549331807    3.26099736148580
C         1.46536640385983    4.74116714328328    4.53703702718332
C        -4.02490450365353    3.35684102809312    8.73306985802675
C        -3.80482841412861    0.57038027699273    8.32180482593389
C        -4.29242383996506    2.29703231359682    6.07092633307255
C        -4.53679648611069    1.17761368550270    5.28068585546001
C        -5.17246966618016    1.30882636193572    4.05961763546157
C        -5.56093026117964    2.55928148854625    3.60831579470610
C        -5.31915734985090    3.67862661564696    4.38740875264203
C        -4.68333484898453    3.55054256979947    5.60862267241897
H        -0.91281854617677   -0.53042129794917    5.90517464036655
H        -1.35576563337739   -1.61486139609629    3.74454688122609
H        -2.00691769162169   -0.23494612052287    1.77085117155250
H        -2.46985599163549    2.10104560476023    0.87561734886022
H        -2.59703566070639    4.52259056691017    1.27586033543273
H        -2.37882952246968    6.47986196378951    2.88469880099783
H        -1.88526372855470    7.20855154943808    5.21961902802388
H        -1.31161683850278    5.53864275022514    6.92823625073929
H         1.91393254282270    4.72435685011361    7.58667107727548
H         3.37631655851621    3.92445060023465    6.94417036049446
H         2.55283893372943    3.29256763627273    8.39357290561198
H         1.89076647744036    0.38025691787968    5.77362752971789
H         2.52354541167484    0.80150781527167    7.36528144425996
H         3.36141447945574    1.38153793568576    5.90324042320364
H         1.40829170177204    1.45133107436036    3.75120552550867
H         1.28180144075154    2.39592079888004    1.49078895963644
H         1.26203313868112    4.84103050094825    1.16782056170981
H         1.39011516592650    6.33970585948438    3.12318793800569
H         1.51537073587196    5.40407406364732    5.38821412714934
H        -3.77764362332946    4.37435373820160    8.43797718777901
H        -3.60344449135154    3.17826452629556    9.72190549241203
H        -5.10673738060436    3.22850807724334    8.76564431583818
H        -3.40945685561511   -0.26852350347369    7.75301632637534
H        -4.89241024918099    0.51525395458140    8.36604756252909
H        -3.39267577338477    0.52057972438107    9.32931232112348
H        -4.23291535773601    0.19881449107561    5.62210343005288
H        -5.36526231071187    0.43272092448609    3.45892385272626
H        -6.05575922585201    2.66057825723069    2.65490556970740
H        -5.62661303184173    4.65439490887859    4.04250672021612
H        -4.49399118095980    4.42996311171271    6.20722360568795

