28
CSD_code = VAPTIR | q = 0 | S = 0 | Stoichiometry = C11H9Cl2FeN5 | MND = 5
Fe        7.62684188451589    0.74019281778733    1.53602628932579
Cl        8.78792147387744    2.47886207435278    1.68268305143247
Cl        6.30615662476680   -0.57782874565229    2.48941520921042
N         7.86989903984532    0.10794857599223   -0.11861590037794
N         6.16705017758741    1.68729840729316    0.63241498989175
N         9.58480447893446   -1.04985360726833    0.75747761460239
C         5.09806077733392    2.05594605382538   -1.28418159358267
H         4.88691104760530    1.95375537233065   -2.32822953746321
C        10.92678344172114   -1.70863085102926    2.35897727629933
H        11.70584614314633   -2.19000216597156    2.91245962832367
N         6.11116008522154    1.38722887598204   -0.68342841378773
C        10.65282998343257   -1.84047934568236    1.01967940946894
H        11.13043110210356   -2.42455292834270    0.26075653525300
N         9.17012651664014   -0.42062936950113    1.87853620191987
C         8.86907564163616   -0.77425519254253   -0.39206255695559
C         7.21785634126458    0.02485414438260   -2.43146937766672
H         6.55780004275082    0.35224847806361   -3.21688962930436
C         5.19154186448112    2.54495897729571    0.86857519200393
H         5.03139046501636    2.93428863556421    1.85397165300290
C         8.24512770233149   -0.87771972140193   -2.69028563486361
H         8.39007356286520   -1.26001766161695   -3.68629456397771
C         4.48681011204642    2.80965225297097   -0.31234882978420
H         3.64783179231023    3.46332524987585   -0.42994405075456
C         7.06079630046328    0.49423987839489   -1.14212394034943
C         9.97219960579716   -0.81028497295863    2.85209429374456
H         9.84102969652453   -0.44237146950745    3.84994463963267
C         9.08438376512399   -1.28445795951039   -1.65729157703620
H         9.88526033065813   -1.98171580312650   -1.83684637820883

