47
CSD_code = VAPXIV | q = 0 | S = 0 | Stoichiometry = C19H22AgClN4 | MND = 2
Ag       -4.71605730870520    3.09304354376978    9.49308371037302
Cl       -3.68131076187609    5.05655149490143    9.81659713154725
N        -6.90127571261038    0.78333543352866    9.73476815080270
N        -5.21242502301862    0.21712553034463    8.54904518841209
C        -5.73375764451134    1.25264780702141    9.27075338632502
N        -3.34993899170376    1.42387309170221    7.89423766670385
N        -3.58224551898340   -0.86240027395223    7.32318863775483
C        -7.79202442019737    1.53776088967540   10.54887591467860
C        -6.05517123188778   -0.87424406232987    8.57824280527205
H        -5.81175806903142   -1.78237772389582    8.06917724733936
C        -7.11901101528644   -0.51158406940407    9.32463908537257
H        -8.00210845603065   -1.05168958754320    9.59858928130182
C        -8.76523634490677    2.32831625732377    9.93338520014600
C        -3.99646559716122    0.26117072166717    7.89486898979409
C        -8.85291097323810    2.43387727207930    8.42940648614559
H        -8.26386704889082    1.62908808784395    7.97793892568596
C        -9.61822122646406    3.06235990621057   10.74655088818754
H       -10.37122342701270    3.69246373102287   10.30098870208786
C        -7.66001251827585    1.47111733498558   11.93786551701971
C        -2.17661857279751    1.45481479389967    7.28586814843472
H        -1.66787895377127    2.40864846330967    7.29692129626901
C        -9.50662408565428    3.00628681960716   12.12228485444147
H       -10.17534846582256    3.58725148126466   12.73951641716595
C        -8.53459727967788    2.22160855293483   12.71205654848142
H        -8.44937556598677    2.20167540164484   13.78669555644254
C        -8.24673464900517    3.76897062825782    7.98792433075516
H        -8.26679461683707    3.85350292387021    6.90401037754974
H        -7.20614441799777    3.84453121191333    8.32537133541036
H        -8.80224110648546    4.60049978771607    8.41389368204394
C        -2.41010334082098   -0.82237401213728    6.71408823604102
H        -2.09032422245716   -1.74854785092753    6.25518587141557
C        -1.63996992251070    0.33178414727802    6.66966628837335
H        -0.68278058538451    0.35768460189003    6.17807100676628
C       -10.28956035828704    2.29377203401356    7.92224997193454
H       -10.74870268959112    1.38931306942209    8.31590451743008
H       -10.29226784140890    2.23718073023323    6.83618341529504
H       -10.89746718301560    3.14508587208724    8.21482636082285
C        -6.56038766751543    0.66065923769906   12.58197786276912
H        -6.13805438013251   -0.02504224509166   11.84033962690277
C        -5.44753622585752    1.60824210218263   13.03894442781085
H        -5.06538340439248    2.18557881686371   12.18868831847984
H        -4.62525727923081    1.04452228114257   13.47315581672303
H        -5.82259327150987    2.30768240627721   13.78163147734003
C        -7.07076666951135   -0.18316475507698   13.75166669101411
H        -7.92649760357639   -0.78260268369576   13.44792244211092
H        -7.36613530736991    0.44067915269455   14.59042835495282
H        -6.28433304359843   -0.85257835422508   14.09252385187332

