48
CSD_code = VAPXOB | q = 0 | S = 0 | Stoichiometry = C19H22Cl2N4Pt | MND = 4
Pt        2.34855680093100    2.51566431772603   -0.89537201361370
Cl        4.35146317842124    3.51200836803254   -0.71362038208203
Cl        3.21166553668280    1.16721917304596   -2.49225487825912
N         0.51193953586464    1.65986059805600   -1.03228821185157
N         0.05262471024936    3.21177116352439    0.57941181288455
N         1.54405171441624    4.55470975608262    1.36028291243068
N        -1.67738626850484    1.81378038543209   -0.12026263416251
C         3.67828294974208    4.61942969629359    2.50436099800404
C         1.37135685541220    3.57374157309430    0.47005323318390
C        -1.18823066268804    0.20079913269759   -1.79117236797608
H        -1.50585006874434   -0.60629243493161   -2.42866224338344
C        -2.06478690860763    0.81961822715234   -0.90741846177866
H        -3.10032965201474    0.52677644215379   -0.81400715634910
C        -0.42084787946254    2.19211358126455   -0.21039472031076
C         3.10028089119626    6.35006085414726    0.86967618551305
C         4.35964001763794    6.90431556032138    1.04809660365158
H         4.64468403645162    7.77979501666306    0.48806435332324
C         2.10621065405378    6.94096986512341   -0.10350919572077
H         1.09816151472908    6.61792650451388    0.18104203031308
C         3.30144936281448    3.37670253434280    3.27807186391002
H         2.21020705816785    3.27416849173977    3.27668115354978
C         0.36442606782517    4.81584887733818    2.01946751429480
H         0.30049162500643    5.57296800928432    2.77438733130660
C         2.79356475213275    5.19772144962349    1.59359816514741
C        -0.57773868387263    3.97712174857628    1.53482136839497
H        -1.61306728008015    3.84886433550950    1.76934841297177
C         3.74791627914452    3.45243915776750    4.73997888160736
H         3.42509474204992    4.38724496370064    5.19360551757163
H         4.82805944428321    3.37949603306348    4.82607947775503
H         3.31162474450733    2.62806389374165    5.29989788321860
C         5.26489869316655    6.33226248568098    1.92092439984556
H         6.24747631866852    6.76557359205011    2.03210108312204
C         3.89855093086578    2.14046814635191    2.60051447721694
H         3.51462197198989    2.03386706122748    1.58129656316084
H         3.64744080242708    1.24376791560677    3.16294356436230
H         4.97965360820355    2.22901036651101    2.53955004376520
C         0.11728293157403    0.66099473758912   -1.82318453897153
H         0.87982222645256    0.24973100052168   -2.47429985481153
C         4.92606523769760    5.20873086282293    2.64953496325269
H         5.64723822008948    4.77722528001214    3.32433808783634
C         2.11554484142055    8.47084063945374   -0.08667348211004
H         2.04472693859419    8.84616474699073    0.93228090525762
H         1.26800430635766    8.84918989512014   -0.65407225619777
H         3.02152034557802    8.86301101868007   -0.54020393252677
C         2.39473852120926    6.42084478204540   -1.51430633764959
H         2.31753670653516    5.33108632534545   -1.54928340367711
H         3.40362614290896    6.69036208840710   -1.81444842110830
H         1.68813618851596    6.84496178050161   -2.22447529431114

