39
CSD_code = VAPXUH | q = 0 | S = 0 | Stoichiometry = C16H16Cl2N4Pt | MND = 4
Pt       -0.19058230744730    5.29447631513985    0.90071184569726
Cl       -2.39791164320094    4.99760674028431    1.02541390011001
Cl       -0.25873488607582    6.59531678999278    2.74088323903586
N         1.40777497408197    4.19249259315299   -1.12781893656818
C        -6.03071694072726    1.93734248546833   -1.24152667270833
H        -6.59523636662905    2.33146942764468   -2.08230452552345
H        -6.45144470890029    2.34580639322905   -0.32343799921386
H        -6.14961603612364    0.85598706860566   -1.21054583256271
N         1.80486779374484    5.55935655522754    0.66046506132659
N        -0.53525327713992    3.36177780576991   -1.54985271818428
C         0.10174040976407    4.17720163307491   -0.70582913393583
C         2.64582634184712    6.29123179304291    1.39293199211182
H         2.20885182895710    6.78826719653385    2.25102030351040
N         3.58149586356075    4.97128058894813   -0.80494941624732
C        -1.91243051443181    3.01035964213604   -1.47475143081325
C        -4.58394879661280    2.30937846335424   -1.33994671920378
C         2.32500084281397    4.92918271052906   -0.41823701523751
C        -4.15396241946944    3.27336511459113   -2.23901755438694
H        -4.87253432187134    3.76185062466042   -2.88066171262309
C        -2.82020601195352    3.64305367752686   -2.31842374423503
C        -3.65374729430852    1.71092227235013   -0.49980552636663
H        -3.98593820424709    0.97620724075975    0.21855095965951
C        -2.36174243521678    4.72922676759513   -3.24233545730720
H        -3.19514532919210    5.11339002752598   -3.82317103790673
H        -1.59357934750251    4.37285507982587   -3.92851491960052
H        -1.94084703084977    5.54759531535987   -2.65770542308285
C         3.98465706760944    6.38991579697053    1.05437361515781
H         4.66260478356511    6.98056476678971    1.64599498959666
C         4.41350443345407    5.69914951175583   -0.07304236204406
H         5.43895718308350    5.71787215970850   -0.41198520767024
C         0.34126397356850    2.87249430614790   -2.49110589943111
H         0.02066193902387    2.19423225283686   -3.25559189835699
C        -2.31296317249897    2.05130507276605   -0.54594987797442
C         1.56317858111981    3.38856164962726   -2.23441262296130
H         2.51005645221807    3.26629943236929   -2.71590307413555
C        -1.31949057108745    1.45513091882962    0.40131788601802
H        -1.77665658766257    0.66444345025677    0.98859204716084
H        -0.96798324448851    2.23349017974658    1.08452676854692
H        -0.45657102077414    1.04974017986229   -0.12685588964452

