42
CSD_code = VAPYAO | q = 1 | S = 0 | Stoichiometry = C16H16ClN8Pt(1+) | MND = 4
Pt       -1.75928830534599    6.50811512490630   10.52274129096954
Cl       -0.67948033483494    8.38735786063690   11.24705343864382
N        -2.59400926431121    6.15492876469728   12.35725760358531
N        -3.39491387323777    4.32208512381874   11.24363603294890
N        -2.97292618375169    3.88066060467393    9.18311493482314
N        -3.98903819660646    4.59906460574297   13.47815204719238
C        -3.34047061562417    5.03764187883414   12.42310629937218
C        -4.05250189181999    3.14871056150008   10.96209864961920
H        -4.63443600880509    2.63429593090328   11.69753293773162
C        -3.78290635563315    2.87703069262804    9.66687504606737
H        -4.09745099586802    2.05807641264971    9.05324662275240
C        -3.89910147512561    5.32033995035730   14.58581013091755
H        -4.43988798403626    4.93784695045962   15.43902735336743
C        -2.47880961234406    3.92415641441501    7.83471731163479
H        -1.99449928268120    4.88518341380906    7.66999144603548
H        -3.30303950079874    3.80787690838486    7.13088600515658
H        -1.76005674344703    3.12001710832472    7.66827854682445
N        -1.35480942808145    7.99556916339562    8.01761511862222
N         0.30559761369643    6.65499574920959    8.29159529744762
N        -3.31589348280844    8.23323472654159    9.23257269186731
N        -2.75067933825923    9.76368881539902    7.51901429260606
C        -2.72395724170910    4.77782050979878   10.14274149256249
C        -0.88863638683148    6.98049237659890    8.79455228885719
C        -2.52958127371535    8.69810565091030    8.26590096347069
C         0.59748427051565    7.44865613974871    7.20660086629635
H         1.51287310949550    7.35121317442531    6.66024348931407
C        -0.44068232395058    8.29390173232042    7.03280305942056
H        -0.61820816877076    9.07424899978883    6.32306772504807
C        -3.15295596155042    6.49125609674582   14.63292602415424
H        -3.07659352949638    7.07730561610042   15.53247546530594
C        -3.83589515239960   10.46982875691685    7.78820980388932
H        -3.99424545294267   11.34180230376018    7.16944433700365
C        -2.50354171579517    6.88033371086610   13.47134325262927
H        -1.89754699792616    7.77687119633145   13.41567670506294
C         1.18646992983994    5.65661103822734    8.83539783099728
H         0.71381743539655    5.22387249232510    9.72043781253493
H         2.13270579239563    6.11302941765542    9.12690954070331
H         1.38161848737107    4.87694035195566    8.09812796547762
C        -4.40090028374181    8.94652309341825    9.49974990176722
H        -5.03539719841867    8.56894082691679   10.28976586518704
C        -4.70928656264869   10.10706901120168    8.80486977640818
H        -5.58393951539524   10.68950074270032    9.03703273572445

