82
CSD_code = VAPYUI | q = 0 | S = 0 | Stoichiometry = C42H34N3OPPd | MND = 4
Pd        2.99871284288541   12.40219790303592    5.03515186245812
P         5.16284454036386   12.82812897346329    5.52005164115314
O         2.51477431671942   12.21413163445125    7.15655213325085
N         1.06188672509024   12.25610313532623    4.95276948313783
N         0.45425141815755   12.12591221037976    6.14073745576433
N        -1.22941762097086   11.94751894253690   12.28906732402519
C         3.10089938900728   12.14509123096112    3.04655452396375
C         4.30142296535244   11.69299938111464    2.54355506084614
H         5.15536364865412   11.54467854158363    3.20293392603253
C         4.50724002499640   11.44134967690477    1.17469215685975
H         5.47139785660807   11.08387400376112    0.84128308612979
C         3.50739929704678   11.68949682335731    0.28820289829710
H         3.65230823596238   11.55127633197672   -0.77377248458585
C        -1.03071899041877   13.11662894043628   -0.74002343511949
H        -0.78715970218060   12.98280883626710   -1.78464519665696
C        -2.25694443999219   13.56859035778272   -0.36139058020024
H        -3.01548229959746   13.79605411980673   -1.09591979818937
C        -2.53212282337324   13.75730130588168    1.00433489600422
H        -3.49577802139662   14.14609222661185    1.30038975062862
C        -1.59595339326059   13.46453646095047    1.95411945956120
H        -1.84398764341014   13.65556894776685    2.98606546340011
C         0.68439062794527   12.63241298926486    2.57014240902181
C         1.22342399952153   12.37087288144540   -0.17586647204070
H         1.41674321719623   12.20509563782042   -1.22691672744900
C        -0.03142048839019   12.82010827389699    0.22035300308797
C        -0.31582581249025   12.96624438157905    1.61164732071896
C         2.00673588549840   12.31704990341884    2.14418831310329
C         2.24230319119384   12.13604313528793    0.74181371190948
C         0.29468881978634   12.53380883285496    3.94207714582940
H        -0.76088030349186   12.61740702120291    4.18385195696431
C         1.25072972373726   12.12086776307729    7.20261873176362
C         0.58676269391640   12.05495583643552    8.51153897001974
C        -0.78733523308156   11.86355546317464    8.63703912939662
H        -1.37812525173884   11.74083582172043    7.74293403086365
C        -1.38586091933522   11.83363555745508    9.87538309882604
H        -2.45191430978842   11.68416316993636    9.92527062469838
C        -0.63580205071476   11.99782995300322   11.05216732056265
C         0.74792233885488   12.19356753149684   10.91356972256018
H         1.37121507609295   12.33186551689792   11.78188109408455
C         1.34067677418467   12.21695250910345    9.67239622049024
H         2.40606169808112   12.37425439859491    9.58017024687035
C        -2.66678303940293   11.90072455986695   12.39837046582573
H        -2.94999274065915   11.87273214162341   13.44816816319163
H        -3.05772647626478   10.99838177353198   11.92196095358237
H        -3.14254900878381   12.77404253863359   11.93669269257098
C        -0.46751986715785   12.27737494701306   13.46819810091301
H        -1.10373413734916   12.19421341975781   14.34643664830281
H        -0.06918647110829   13.29818504966655   13.42738597500239
H         0.36692095823175   11.58263974314630   13.59187978291925
C         6.04483206013450   11.24236330420562    5.68385654119575
C         5.20860397858476   10.14079765691596    5.87241057444400
H         4.12250667313721   10.29436089216825    5.90001170468017
C         5.74695752835323    8.87582585637546    6.01100123304019
H         5.09972651797528    8.02429133034396    6.16038316957486
C         7.12137771298244    8.70055712651449    5.94797410196249
H         7.54426317244747    7.71230640642515    6.05258039368673
C         7.95252302653495    9.78841549098684    5.73828114080308
H         9.02184324277992    9.64670921556418    5.67621206105557
C         7.41977985513557   11.05958869280891    5.60374435991392
H         8.07036498669936   11.90402040694477    5.42546500048170
C         6.35035686170477   13.98006829498912    4.74889996787598
C         7.47575019226871   14.42533526995679    5.43672647502555
H         7.65224356254612   14.09530432558681    6.45162043306408
C         8.35354746482877   15.30386950617808    4.82880324480943
H         9.22879888631615   15.64522266184326    5.36263772087204
C         8.10853957088788   15.75237052346337    3.54022697572303
H         8.79634691703262   16.43955420732726    3.06974516215510
C         6.97619785127598   15.33145763866845    2.86269210164487
H         6.77605794928508   15.69369988342464    1.86509659172264
C         6.09608843389138   14.44990117572110    3.46532512775974
H         5.20107513391030   14.12340930711384    2.95090189579949
C         5.13006933365994   13.48257366718306    7.22139429532580
C         4.23033694301314   14.52720547670025    7.42350377078176
H         3.64842317617371   14.89156639786812    6.57558109838160
C         4.05945745872194   15.06185956117780    8.68441000499068
H         3.35147851379663   15.86187401211432    8.84538020101036
C         4.78399585865756   14.55086766587064    9.75171831346831
H         4.64114334349466   14.95728532982277   10.74248226857525
C         5.67551795422507   13.51051888754132    9.55452057363472
H         6.22863959883922   13.10682522170142   10.39072215316869
C         5.85088288916724   12.97116666140265    8.29060335165491
H         6.53011813100868   12.14226720960317    8.14112573106436

