65
CSD_code = VAQCUL | q = 0 | S = 0 | Stoichiometry = C32H28NiOP2S | MND = 4
Ni        4.56294316737417    1.70679182060976   10.74070283093365
S         5.24084389170962    3.34656969673380    9.48879283026064
P         3.36043715599237    0.44561674426391   12.05285493724308
O         5.52151033653251    2.42119617252545   12.15937308107955
C         6.14137764284135    3.57594052200728   11.99877046168018
P         3.86064471942562    0.53134683282154    9.10823965771338
C         6.78004789294396    4.22408297751005   13.05997762986047
C         7.49232826949152    5.38396198847286   12.82241477921193
C         7.57208437200337    5.92784275518904   11.54875289241786
C         6.92210144327413    5.31720407235184   10.48984168121000
C         6.20192427045253    4.16201460469322   10.72596093732412
C         2.40981551519120   -0.48480720233013    9.66349589125946
C         2.68888507963069   -0.98433749903337   11.07738165783729
C         1.84982139166172    1.44449784960629   12.26869755063754
C         1.78018696869392    2.66148401420749   11.59822021829296
C         0.65021402322272    3.45118655090515   11.70621970234577
C        -0.41066770817730    3.02812486444342   12.49073733920986
C        -0.34060774945857    1.82046756028476   13.16876305053936
C         0.78653679605726    1.02659084781064   13.06156040196044
C         3.63616037682257   -0.17661080091979   13.73129063611469
C         3.45646027089800   -1.49555052200101   14.12965682001709
C         3.69589776194720   -1.85233167730336   15.44584452842264
C         4.12154529731399   -0.90461266314936   16.36142276854505
C         4.32023337168035    0.40808782323940   15.96134652512706
C         4.08253224649824    0.77147408362708   14.65038532779265
C         5.13653967385919   -0.75351854304833    8.91974602643575
C         6.22563875602638   -0.70521533624475    9.78435441510096
C         7.21720383635936   -1.66587279037483    9.70580235057825
C         7.12390400695471   -2.67261532460145    8.75816402396702
C         6.04461648569899   -2.71745956898672    7.88839447357845
C         5.04946279478787   -1.76044309427706    7.96456911701492
C         3.49500673792296    0.97771042715119    7.39071178972640
C         2.21613068275824    0.98154599300657    6.84721547541152
C         2.02920190408599    1.37187338821142    5.53235248949195
C         3.10805495618798    1.77042306368265    4.76154718383766
C         4.38242728362909    1.78657671893024    5.30705862581877
C         4.57593045587538    1.39673452694008    6.61741808848027
H         6.72607203584860    3.79048928942426   14.04799814935374
H         7.99758031691748    5.87102197635279   13.64485047964311
H         8.13385940977750    6.83512302998005   11.38117214797414
H         6.95768717766117    5.73366882928273    9.49374485260575
H         1.53238729816701    0.17010892039560    9.67376966101622
H         2.23211887253387   -1.30915050004372    8.96676691942842
H         3.45771697564879   -1.76372729791632   11.05412490304596
H         1.78485099961133   -1.38548451910404   11.54346380566010
H         2.63723812162375    2.98977567032385   10.99473403445717
H         0.59870430807707    4.39569271585911   11.18546711828113
H        -1.29337410854196    3.64380956320683   12.58155069837030
H        -1.16734215980963    1.49968096531345   13.78585990074304
H         0.84979358061146    0.08940503334286   13.59817734961823
H         3.13161668669954   -2.24480937615500   13.42238802066105
H         3.55053198136600   -2.87684637957363   15.75715583539365
H         4.30623155754647   -1.19159513924448   17.38615198720746
H         4.66466473479296    1.14372770300477   16.67297883557523
H         4.25399201517580    1.78380095347533   14.31000642312937
H         6.28981313727381    0.10926176811513   10.51627635615480
H         8.06269933058775   -1.62806636272389   10.37636398337575
H         7.89819665729286   -3.42254140929918    8.69090872484187
H         5.98203750352245   -3.50043344404807    7.14669376973715
H         4.21150613158272   -1.78378311602903    7.28082552365574
H         1.36573407234224    0.68285145679294    7.44260308251866
H         1.03491541824732    1.36914734989861    5.10974172852241
H         2.95456033288018    2.07698351603052    3.73747695525823
H         5.22247809662677    2.10991652218299    4.71076519447462
H         5.56155513777407    1.42170140418591    7.06234536282123

