34
CSD_code = VAQCIB | q = 0 | S = 0 | Stoichiometry = C13H17BrN2Pt | MND = 6
C         1.46848273244857    3.86777506225632   12.79217983577540
H         0.89619188190701    4.77186559826266   12.57943148533530
H         2.24018197375387    3.77631870470892   12.02158691983669
H         1.94315571548084    3.97492070578679   13.76784219921427
C        -1.23267936604207    3.24964676789867   13.52487065640565
H        -0.90863191899889    4.14541745315587   14.05422757327475
H        -1.74392212522862    2.60508645799527   14.24504537019608
H        -1.94282642056206    3.54842854979168   12.74975016992012
C         3.04896221075211    1.00894682489464   11.54670274685514
H         3.46917492875868    1.81138188325222   12.13866774591796
C         3.86295876318178    0.19781581901861   10.77504506934321
H         4.92742294764196    0.36524382459376   10.74497716753392
C         3.27243937757780   -0.82749508571690   10.05278674907209
H         3.86914849726036   -1.48921072763886    9.44329071409317
C         1.90249676731313   -0.99517278172707   10.13026551421829
H         1.42807558356943   -1.80284551014449    9.59768624060596
C         1.14682174687673   -0.11955566503565   10.91097710608002
C        -0.31347252996620   -0.24744196796844   11.03834759325716
C        -1.07605311948017   -0.98602808902833   10.13447938260411
H        -0.61602922187513   -1.44231113922909    9.27378461913926
C        -2.44299239041891   -1.08311331926736   10.31998419600377
H        -3.05079461368560   -1.63062198798868    9.61586234586261
C        -3.01379234253490   -0.46097270694662   11.41852401873896
H        -4.07347894610132   -0.51643580150633   11.60798091402689
C        -2.19102748802781    0.26620273393778   12.26253088758255
H        -2.59912116322813    0.78094442076433   13.12203131454596
C         0.87487816760759    1.51999365728137   14.47274960825591
H         0.70005792255073    2.22582290795315   15.28180145663163
H         1.94037323052465    1.28444610174196   14.44970507587292
H         0.32520081862017    0.60297049130248   14.69241794714611
N         1.73523641411198    0.86140447455052   11.60745122846929
N        -0.88606370547013    0.38460302029410   12.07474303141660
Br       -0.37943290333073    2.92617134762407   10.20004677095658
Pt        0.28165857502805    2.19909797504069   12.60922634579476

