29
CSD_code = VAQCAR | q = -1 | S = 0 | Stoichiometry = C6H10CoN4O8(1-) | MND = 6
Co        8.66492909119100    5.30248535460081    7.00716126343891
O        10.05538815275988    7.37641590121002    6.64796120504081
O        10.78709569293862    5.65849505176961    5.58527413298418
O        10.65692655561859    3.68943940811102    7.29334564573298
O         8.73801511373599    2.78129544640994    6.96242727346577
O         9.06547643739836    5.53084836612183    8.85881780120792
O         7.95561106151637    5.16813014983064    5.24037081323941
O         8.43964884134671    6.52789065381370   10.73639907166791
O         6.10530807100378    4.92477971527152    4.04547927319766
N         7.44169952940512    7.12964185409717    7.37675853021461
N         6.66627900697955    4.45948115649637    7.52613680453625
N        10.03278166153181    6.19308817252391    6.35625756560779
N         9.47810591298206    3.74541930700520    7.05540262200284
C         6.02257548364689    6.79796217061589    7.38607826296282
C         5.82703010406239    5.48186181091742    8.13795504717725
C         7.92795240755782    7.62768459828037    8.66647601931119
C         8.51700089159925    6.46944512624539    9.52041614826473
C         6.14376693035141    3.97141616599152    6.24682544748381
C         6.76407854463265    4.75992904294667    5.05890434514367
H         7.61904024370494    7.82836509583754    6.65923315402310
H         5.42066306530030    7.59004382649815    7.86068482050009
H         5.68781766704172    6.67647521953248    6.35261540772564
H         4.76163216232736    5.19970300303465    8.12214261043787
H         6.13910917101285    5.61053365496884    9.17765242961530
H         6.76505648877285    3.67697642986046    8.16833816670479
H         8.75698865111541    8.31646735968247    8.49306820702790
H         7.14460102958975    8.14642465489045    9.23363283864417
H         5.04873416627819    4.02557642907363    6.19735202870564
H         6.45548786459846    2.93462487436220    6.10673306393512

