29
CSD_code = VAQCEV | q = -1 | S = 0 | Stoichiometry = C6H10CoN4O8(1-) | MND = 6
Co        5.40256955818989    1.42753791332037    2.82139863047971
O         5.31590067094414   -0.53487879581993    4.49348546121596
O         3.42448162077431    0.18616124564515    3.77319914163958
O         6.85743679030184   -0.65899779939699    2.39302621451506
O         7.86650892943499    1.23637714763911    2.31707727309507
O         4.75557558246298    0.86516770790852    1.11684483243980
O         5.94734995721637    2.29141011510659    4.43299156412579
O         3.38101111016455    1.35531616270276   -0.55074601537248
O         6.50135258299769    4.23093768587754    5.35051758071710
N         3.57207225106139    2.69988310586108    2.73616359972088
N         6.16174874026095    3.32548246248886    1.92820788823315
N         4.64321969477363    0.17289210093349    3.78930175215338
N         6.88693317500664    0.53833551431551    2.51477509204502
C         3.93103593058505    4.09367656613426    2.50821924690215
C         5.05239169206592    4.15269862622927    1.47138052144113
C         2.78606395836195    2.11841099000815    1.64447467481975
C         3.70789017119878    1.39313934927895    0.62381546287858
C         6.93630401699015    3.94145488813062    3.00915346133049
C         6.41829684918619    3.47315706135633    4.39828568300478
H         3.04713608559691    2.62508755083679    3.60408461303803
H         3.06981425196701    4.68582161270104    2.15807393687920
H         4.28766166650068    4.51863957253993    3.45007995329043
H         5.35987269939169    5.19968543582402    1.31596665380518
H         4.68781260505855    3.75099836215557    0.52238799455883
H         6.77887334806945    3.12754969683988    1.14435202137065
H         2.12992507175033    1.34566754245032    2.04961426838841
H         2.17644049297489    2.86923526504274    1.12583023070800
H         7.97001571304875    3.59567751237731    2.94904034463324
H         6.92230478366420    5.03757540151162    2.95769791794264

