29
CSD_code = VAQHAY | q = 0 | S = 0 | Stoichiometry = C12H11O5Re | MND = 8
Re        1.28653861910091    9.80310001306109    2.18048694340353
O         1.48023031805852    8.51835409679471    8.28761109074144
C         1.84446713924758   10.46376358955773    0.43920163774064
C         1.46392220032730   11.56784524148723    2.97655087874668
O         2.90865909705367    9.66264533385723    9.55888242184065
H         2.12987302593675    9.80188110227278   10.12081032796878
C         2.32141008143924    8.74116773699359    4.07429763427275
C        -0.58840859828157   10.11072038817063    1.76594658736647
C         3.79989550023862    8.66988446934936    7.61862885153171
H         4.40513108475452    7.91787670722525    8.13185411794798
H         4.38910196618935    9.58702531952223    7.56888855734974
C         2.59252102359574    8.92395525961357    8.48801576186167
C         3.41109385924854    8.17559934947011    6.22892577947220
H         2.69981802983780    7.35347432343367    6.33515519580193
H         4.29764336982672    7.79771649210794    5.71480908781968
C         2.76869663322017    9.29156204868395    5.39343893641954
H         1.91077456197054    9.69215964234199    5.93842605014616
H         3.49210518318954   10.09910109662460    5.24712562473328
O         1.61821907667866   12.56329026165581    3.52308315033032
O        -1.70910417821603   10.21361620226967    1.55410108695132
C         1.13087922564199    7.49842942916724    2.53697375242458
H         0.39645368550778    6.81595825180365    2.13457084404572
O         2.22497664002592   10.78358226414429   -0.59330557449054
C         1.07048121647699    8.12075198913973    3.81769237094730
H         0.28937318360656    7.97902330036713    4.54990049001727
C         2.40921364893631    7.75656397561274    1.98882638059229
H         2.81349886926930    7.31733236399914    1.08811496081336
C         3.13447612314443    8.55160223434723    2.92110391911319
H         4.18815941397360    8.78241751692604    2.85858313408921

