67
CSD_code = VAQLOR | q = 0 | S = 0 | Stoichiometry = C30H26MoN2O4P4 | MND = 6
C         4.42391972986383    4.47157626393637    5.55059568504672
C         3.19703982005770    5.11477726860498    5.67972771209225
H         2.28886288906088    4.56906713002801    5.45162648023301
C         3.14996812663305    6.43379789469594    6.09103398267318
H         2.19835195862853    6.93358576546021    6.19482070004362
C         4.32664804656037    7.11667189903799    6.35838887976681
H         4.29020596359953    8.14931737286403    6.67215859474334
C         5.55074141344506    6.48259544124254    6.21592242501438
H         6.46584212325642    7.02000863452427    6.41685188643086
C         5.60235197469882    5.16097836259230    5.81205707276370
H         6.55685145050224    4.65963784004138    5.69016952549521
C         4.67934520031081    2.48677766172836    7.62727023259711
H         4.58407205009802    1.76891962519928    8.44413009852727
H         4.19743594992493    3.41957735989561    7.92805441553210
H         5.74581300361119    2.68307828994570    7.46285987337075
C         2.01089707010798    0.09857985545296    6.37347782101972
C         1.35382709647993   -0.68220215476960    5.42715960141352
H         1.91878480839705   -1.20906370487249    4.66602080019142
C        -0.02574051466012   -0.77842191119634    5.44834159029159
H        -0.53090100079746   -1.37429265528631    4.70232074415491
C        -0.75596027491193   -0.10138014476747    6.41081064568833
H        -1.83373939661847   -0.16828553149772    6.41574210629104
C        -0.10535497375085    0.66580678647030    7.36388756666509
H        -0.67511687381443    1.19400410375166    8.11449558182263
C         1.27311686775180    0.75660902821265    7.35375730363643
H         1.78816667529232    1.35739071268288    8.09194157019039
C         4.35701267057111   -1.64644699702172    3.88611319786637
C         4.56898425468779   -1.94754866509085    2.54448646012277
H         4.69297800514670   -1.13745718832520    1.83531862926608
C         4.61519160316974   -3.26644072958604    2.13273342250690
H         4.78263209294572   -3.50184273050067    1.09224259463844
C         4.43411110413162   -4.28518395615426    3.05560016665036
H         4.46191638261630   -5.31522663520957    2.73253097179890
C         4.20821477932166   -3.98745586357799    4.39014415135441
H         4.05924443637297   -4.78330309351511    5.10498447708131
C         4.16896133981365   -2.66974881666358    4.80796251714880
H         3.98454453911765   -2.42787505148908    5.84945591012345
C         6.78032123029585   -0.56164605182201    5.01302614140238
H         6.34575421667935   -0.97131381298151    5.93293708021472
H         7.75828586106420   -0.14022549231546    5.25308901469853
H         6.92039272261322   -1.37866365690814    4.30190499111072
C         6.80013597864489    2.71582731240039    3.10126026900714
C         6.25083048327932    3.89604304575492    2.60904089079989
H         5.55218666794886    4.46648961300753    3.21126488750174
C         6.58669732653234    4.33882507837329    1.34251099209987
H         6.14519741915377    5.24745347351497    0.96005008583779
C         7.47098789708821    3.61205992150650    0.56288373142676
H         7.71965149798837    3.95358082356941   -0.43091059902486
C         8.03270105905509    2.44464940293080    1.05469921986428
H         8.72288846119529    1.87812984555021    0.44664450580099
C         7.70859430558350    2.00349461764637    2.32311065406230
H         8.13925998324688    1.09015850732512    2.71235209568250
C         2.04156760060616    0.75410914535418    1.95726364662174
C         1.52109932686562    2.04787503240571    4.31660369633478
C         2.47191389162162    3.50623675720630    2.37208966150861
C         4.45797041260059    1.71529817184773    1.77008309523377
Mo        3.09396096746934    1.84797843103887    3.16814938603756
N         4.02643971173928    1.94561649908043    6.43141127484949
N         5.93780487699052    0.48197719518026    4.42124873445988
O         1.43368613072829    0.04761584440025    1.29415547369729
O         0.53295235459223    2.32478990951569    4.81844414718555
O         2.16823788971431    4.52102102988850    1.94032225221776
O         5.06742531691310    1.56087002216973    0.81628960460963
P         4.38141407673653    2.76157842798156    4.95369989224835
P         3.83182687750861    0.21026645306037    6.44793277051905
P         4.25659315846338    0.11119549276731    4.31344917568356
P         6.45350190496730    2.10952749354051    4.78839783396397

