42
CSD_code = VAQROU | q = 0 | S = 0 | Stoichiometry = C20H14Cl3NO3W | MND = 7
W        29.80748091752392  -10.90228590009138   29.20058038601589
Cl       31.06372322374989  -12.78045400978193   28.27772994972631
Cl       27.99689685675039  -11.28920486741389   27.97019728161851
Cl       29.10927687462997   -8.61056931814348   29.39624676463853
O        31.51107609950858  -10.47544074810664   29.92972350400158
O        30.68790311049137  -10.09696481834182   27.53651619438654
O        32.09515528685874   -9.53461412913921   25.99372746423424
N        31.87417907640260   -9.83534139646160   27.15332490223324
C        28.99128148882312  -14.16025272742018   32.28591646141957
C        28.76334539296660  -15.49672408074540   32.54957196675737
C        28.47399396415921  -16.37440375833738   31.51571003845711
C        28.41493791061266  -15.91448857463556   30.20916969377192
C        28.65013070869791  -14.58184976654853   29.93184962169653
C        28.93634658256918  -13.69122355780469   30.96996589928899
C        27.57575532568647  -10.78230561919313   33.13009036064997
C        27.18893241702544  -10.05293001294288   34.23739187359702
C        27.87014284742144   -8.89699485437822   34.58741206625913
C        28.94389422586915   -8.46465702818150   33.82415092610360
C        29.33396353750241   -9.17963621305067   32.70881767568645
C        28.65578332567519  -10.34916273331802   32.35473063396386
C        29.15288388426882  -12.29347791861698   30.67581755221587
C        29.08039583918324  -11.09973830116724   31.19964677120644
C        33.82195645276473  -10.17585136967550   30.31746514564731
C        35.08069318648130   -9.87721578407696   29.84324903395913
C        35.27566588500855   -9.56540363000064   28.49922659614337
C        34.20682547060565   -9.55800957705447   27.63505022374289
C        32.91751237025021   -9.86320635860686   28.09189423161375
C        32.71098765835485  -10.17833342132262   29.46347768922387
H        29.22076629512974  -13.46963643376088   33.08381079272738
H        28.80998084819652  -15.85731463994764   33.56656076480320
H        28.29634192028011  -17.41777616746743   31.72934902428559
H        28.19031612924359  -16.59902053242666   29.40528735671316
H        28.60988006706465  -14.20920666839840   28.91636877356104
H        27.04740709403886  -11.68018630976607   32.84563695756123
H        26.35119729033614  -10.38664069457391   34.83166350359581
H        27.56092097639357   -8.33126383936437   35.45352109907234
H        29.47098224724606   -7.56269617908077   34.09650152163163
H        30.16372730151296   -8.85306654830065   32.09555671109531
H        33.65055250005000  -10.42316157262660   31.35429772784903
H        35.92094167489974   -9.88596275386926   30.52012339090426
H        36.26317667090199   -9.33129098288530   28.13546153763933
H        34.32788906486281   -9.31883620296287   26.58950993029906

