80
CSD_code = VAQRAH | q = 0 | S = 0 | Stoichiometry = C31H34BMoN7O6 | MND = 8
Mo        1.79613790173150    6.99861922284722    3.61820645412731
B         2.13574507234416   10.00134879658060    4.94396588640980
C         2.00400385279770    6.89592607348235    6.75408447581536
C         2.08738220928644    7.72276424218930    7.87277679179416
C         2.14652430301941    9.00065818034694    7.35610144312331
C        -0.75143682318706    8.90686653743440    3.08477429459558
C        -1.20322044964293   10.19218551363647    3.37958860483437
C        -0.15773758816011   10.77132184079365    4.06330396014951
C         4.52468720479444    8.26580622922132    2.89828276875564
C         5.22736525022928    9.46636795207451    2.97254761051810
C         4.41425451812127   10.30013770188293    3.71350913387981
C         0.14436106873102    5.63431579393402    2.64500610681555
C         0.86074926677844    6.56805117937418    1.72818059406764
C         2.19249356809970    6.20665330189419    1.46872630441686
C         2.51545324607647    4.73192681920827    1.27855792453227
C         1.97822738034698    4.28799107790083   -0.10288858403434
C         0.48632143680088    4.43743600377091   -0.11050010495079
C        -0.18512840137884    3.70015589992964    1.02517473374957
C         0.44590604310860    4.15946967112231    2.37220176555356
C        -0.17449523170809    5.18473203002743   -0.98034042648232
C        -2.33292096321784    2.91935058571941    0.39032532139172
C        -3.80626236660804    3.25848876116155    0.54529549039355
C         2.56248471844634    8.23060099631460    0.25158397006993
C         2.43839007139957    2.75006902766477    2.64524205709790
C         2.11450874003367    0.74072370389074    3.80361479863489
C         1.75065036718329   -0.20911277656240    2.69150724476591
C         0.45750845317833   -0.19250300089158    2.18134464195488
C         0.10620927208858   -1.02686541707146    1.13615929162340
C         1.04349981144664   -1.89209552775597    0.59638609408528
C         2.33171669080190   -1.91431876584460    1.10236445094883
C         2.68701524524330   -1.07172338553365    2.14203413313701
C         0.40562305739143    5.79981204262452    4.28351813045590
C         3.06112916412234    5.58213291937493    3.96014160347955
N         0.47803586920931    8.73340634905470    3.55008118549689
N         0.83411535995435    9.87163276822521    4.14983659628369
N         2.01331514276715    7.63289631903256    5.65336805893084
N         2.09759596167935    8.91123553070413    6.02055641248339
N         3.36723654518375    8.38583621077142    3.53664870837831
N         3.30416461615268    9.62158685649756    4.03152623549629
N         1.86994479584030    3.94710856679024    2.30540983105536
O        -1.57845772248739    3.88612472359691    1.09500895934759
O         3.00020346110142    6.94483101014491    0.61328857729607
O         1.65878382829501    2.05811799465586    3.49795710983203
O         3.51310380314050    2.37632576298982    2.24916528095704
O        -0.21402703388819    5.17412051057051    5.06920278710604
O         3.83344256452173    4.79728794746080    4.28122359484666
H         1.93428343993248    5.82606263664232    6.70195808043639
H         2.10239785820624    7.43248223422730    8.90278883865555
H         2.21888651871966    9.94916027361075    7.84903412681267
H        -1.28205810686787    8.12778975399442    2.57096729366415
H        -2.14997867404589   10.62574428407051    3.13226949859840
H        -0.05917699919588   11.75018455927652    4.48601456712512
H         4.80191439962815    7.34652924636878    2.41700677470129
H         6.18745121443121    9.68958429849253    2.55542662137188
H         4.55786220254715   11.31404892045098    4.02793717140170
H        -0.94047451953417    5.77929579452671    2.57689366428739
H         0.29122099413080    7.25846090613860    1.11145753762036
H         3.59331858069211    4.55439530637582    1.33030912162065
H         2.43445042490658    4.89286223678396   -0.88591134441207
H         2.26105807598658    3.24257652060678   -0.25199270885987
H         0.04271484316026    2.62360366147516    0.92447909084572
H         0.02503599749272    3.55189894405666    3.18025080426426
H        -1.24376265846277    5.29615460424463   -0.93006752889267
H         0.33287117799166    5.70779062107502   -1.77328386183886
H        -2.12626315514507    1.91901508650215    0.80206383633573
H        -2.04829687773415    2.91280334579336   -0.67188883845668
H        -4.06937955599437    3.28009444394766    1.59903852792188
H        -4.41370615659875    2.51426419238349    0.03831248611516
H        -4.01052606751770    4.23662143945077    0.11866481063455
H         1.74577649372372    8.18545764606730   -0.47833534715356
H         3.42012952302495    8.72409606052458   -0.20434827973356
H         2.23272860701964    8.81115788893366    1.12326337627680
H         1.60334404761505    0.47499834087923    4.73297309004481
H         3.19679588209253    0.75527912082649    3.96211864592126
H        -0.26783779691865    0.48467053424917    2.61048470360026
H        -0.90035427393703   -1.00530576306302    0.74300487591856
H         0.76970398327863   -2.54583114658172   -0.21867242257351
H         3.06568393963920   -2.58497586163293    0.68058248991813
H         3.69647346688755   -1.07770493685842    2.52473006035235
H         2.26220988964511   11.08413102479256    5.40001993425013

