66
CSD_code = VAQVOB | q = 0 | S = 0 | Stoichiometry = C35H23ClIrN3S3 | MND = 6
Ir       12.78702138325061    3.37060403637552   15.96385997001589
Cl       13.07888887214213    2.34719511177287   18.12293400176163
S        11.78659859173823   -0.73177872827963   14.38809674628255
S         9.84992697787171    6.18116216568058   17.91258109373323
S        16.60552455928362    5.33990358203614   14.25054076772139
N        12.91407297984432    1.47812853510699   15.10482895903712
N        11.92413948750022    5.01357781438463   16.91121021452012
N        14.88248903218547    4.08641676915402   15.71342068704617
C        10.92247324741351    2.83807332366646   15.98508123680720
C        12.67563450639336    4.27507996746793   14.14283425837954
C         9.21967742629328    1.19225211083816   15.48901564161468
C         8.29525264703809    2.07795811703700   16.03335606163119
C         8.62465781424226    3.31759488938365   16.57206564353973
C         9.97358684427356    3.70140929520218   16.54685427049871
C         8.77953229866605   -0.13020502182292   14.95221973665312
C         7.56805056142163    4.19637401913008   17.15695892171057
C        11.73121902470386    0.88445370854662   15.01850410282658
C        13.51532108837300   -0.60799934629455   14.26350516500716
C        14.41230011912343   -1.56715129920841   13.82427269391646
C        15.75645535046894   -1.25413072548975   13.83358238281584
C        16.19179469019636   -0.00732695411228   14.27852412437391
C        15.29951779397698    0.94894586817142   14.71054290855681
C        13.93546154100728    0.66128988175087   14.70518169555883
C        10.61286728527926    4.87828555351185   17.05617930798730
C        11.40117892737991    6.93778547140046   18.11327476877299
C        11.69728799963865    8.12158046023549   18.76776662737418
C        13.01702003075684    8.52154805267160   18.82421572363467
C        14.01869851964404    7.74803472953497   18.24083205907348
C        13.72405313708207    6.57286797072350   17.58553942396549
C        12.39820651078678    6.14909593487217   17.50773420619152
C        16.05223034373325    4.04630409195273   16.42294684739606
C        16.24434274116151    3.44753207256933   17.66644849473187
C        17.49819552677354    3.50367506131007   18.23515300061452
C        18.55765407846123    4.14204404269613   17.59221286586813
C        18.38618413627867    4.74102095898349   16.35902941081552
C        17.13003534743249    4.68826092446335   15.78030500457212
C        15.00436771945166    4.71506983991827   14.57627101146794
C        13.88211858665749    4.85474487450132   13.69323417570716
C        13.97611349763715    5.51779407672580   12.46876840704949
C        12.86490570067270    5.61689703860148   11.66107127495519
C        11.66653672622503    5.05420472376356   12.07888424491484
C        11.57771874022645    4.39800319262941   13.29583713070376
C        10.56574527954785    1.58628409049298   15.46821065060561
H         7.25655050663263    1.77853288190394   16.05012574278708
H         9.07294587080568   -0.23695280200838   13.90822600503290
H         7.70039410182237   -0.23738120155740   15.02617544526643
H         9.24910600335154   -0.94048001938921   15.50951747004522
H         7.56572895348251    5.17053715001669   16.66875978420069
H         7.75715188847148    4.36130684416977   18.21750143382440
H         6.58530827626588    3.74561261057156   17.04534499636816
H        14.06047175779549   -2.53133410496197   13.49288670099231
H        16.47698197720829   -1.98516627619639   13.50071023402298
H        17.24886048436227    0.21152902743680   14.28940920981942
H        15.64054243230784    1.90250480392384   15.07210291421896
H        10.91208571716044    8.70380482240562   19.22347686929575
H        13.27573957814749    9.43758762630720   19.33247019210854
H        15.04575375367751    8.07352399608917   18.30844979741640
H        14.50187318893281    5.96789562593507   17.15499166325237
H        15.40999491637653    2.95918161009099   18.14795859721861
H        17.66338883878175    3.04464127169989   19.19782425217572
H        19.52873236115654    4.17060296487450   18.06307835670604
H        19.20145427240226    5.23651253962018   15.85545245785095
H        14.92173863341470    5.94714974133430   12.16651836514465
H        12.92505981658523    6.12724149763929   10.71131736573846
H        10.79208053207580    5.12862648770743   11.44781505134150
H        10.62719846655268    3.97306262032922   13.58800117476638

