48
CSD_code = VAQVIT | q = 0 | S = 0 | Stoichiometry = C13H26Cl2N2O4Pt | MND = 6
Pt       -0.05539567184291   20.55208791903465    1.84949545104193
Cl       -1.52785572306997   20.50110512657074    0.06256119359276
Cl       -1.79277364949721   19.99446872617762    3.23246776714305
O         0.29023881268897   18.53563480977911    1.56829277014796
O         1.31504780798039   18.67750800027968   -0.40710876061499
O        -0.59728513180115   22.55242324044122    2.04374605900127
O         0.29527976413310   23.03879205680811    4.02303288465092
N         1.33361504978520   20.60016127855489    3.52521592768776
H         1.02448276504443   21.53571069917646    3.88623689961458
N         1.36340934869845   21.21304942385070    0.38168151358397
H         1.30709718859024   20.38756764738072   -0.25458021956944
H         0.88516842850883   22.00475385744967   -0.04619880419240
C         0.76224458996303   18.04691738194595    0.48749958691246
C         0.61345996837077   16.53730398352583    0.39536132435565
H         0.46409701075136   16.10909945874763    1.38138362353251
H         1.48695569472144   16.11278730558610   -0.09054163315819
H        -0.26254238425194   16.33381021980591   -0.21668286637537
C        -0.44581258385187   23.28591765655760    3.07369332254315
C        -1.25265429809153   24.57090699797387    3.03550059935355
H        -1.42566588700270   24.87748147143573    2.00874862036538
H        -0.73897712518356   25.34488198688991    3.59773298367846
H        -2.21227113316214   24.36670874030004    3.50580819529745
C         2.73076077205839   20.72067701062531    3.11215694084712
H         3.34577953097755   20.87226174457599    4.00620114884216
H         3.04617618087120   19.78880144793931    2.63338075960558
C         2.96779715688090   21.89311411438412    2.15801779951359
H         3.99711277966460   22.23622144946633    2.27119650090029
H         2.31160436064547   22.72365866207745    2.42517797539070
C         2.76015488691255   21.50596888834147    0.69267828705575
H         3.12311908242305   22.31799373314245    0.05414937914028
H         3.35365780174090   20.61298366459140    0.47702271866195
C         1.10408990435479   19.65684157781214    4.63801497749092
H         0.01799747700398   19.53160654151562    4.70433856097795
C         1.71945985325326   18.27725286370451    4.42214296791117
H         1.39056832613558   17.88118004330522    3.46164277063044
H         2.81032847092883   18.33380123407854    4.42964203707681
C         1.26480860091391   17.35313515455122    5.54999598524871
H         1.69418575134687   16.35975889582779    5.40800837573170
H         0.17840941708686   17.25839179986206    5.51908195299297
C         1.69042001179175   17.91371958602641    6.90404406057820
H         2.78154408183157   17.94842037040737    6.95568295303153
H         1.34069459738975   17.25795361638567    7.70287807024527
C         1.12822690427962   19.31806239191917    7.10511450422529
H         1.46282430313049   19.71995333864921    8.06321560209159
H         0.03808971974119   19.27375505755040    7.12086900215031
C         1.57608508043223   20.24070286646663    5.97414574918200
H         1.14959587907239   21.23595878975899    6.11082298947848
H         2.66524622764809   20.32524716876674    5.99613149240713

