50
CSD_code = VAQYEU | q = 1 | S = 0 | Stoichiometry = C21H26N2Rh(1+) | MND = 8
Rh        6.60308389426073    5.26769106291516    7.79795223005604
N         6.31309762445004    5.08196433693772    9.78272690366821
N         5.12436055056531    3.89608520767011    7.83850149517783
C         5.34445764372330    4.22237320028744   10.16581777630883
C         5.77984281961690    6.88556642604446    6.41797348296481
C         4.67463481395561    3.54326688742637    9.06206821827888
C         7.82878316384173    7.05110086972694    7.48239135150993
C         7.01183595463630    5.72528978838181   10.71821666498493
H         7.80164115201234    6.37808688534507   10.37216539449260
C         6.72636980425209    6.01525950980635    5.74254461688321
C         8.00695913991664    6.20553497312035    6.34430758455629
C         6.45467467131922    7.52055046848063    7.47966477973973
C         3.66659336211015    2.59215223543750    9.21481906529549
H         3.32078461222837    2.31933715903779   10.19768824803952
C         3.59791664315754    2.35955144488111    6.84448539640868
H         3.20399072030736    1.91308010588970    5.94628601188072
C         5.05118308092428    4.01855555315142   11.51361861657437
H         4.27509418556895    3.33008498715888   11.80299704706338
C         3.11628221557413    1.99713555867457    8.09616111822597
H         2.33448035063433    1.26123291081532    8.19504798224185
C         6.76930488672844    5.57298917809628   12.06959961971350
H         7.35738815451942    6.11967084636512   12.78834354764404
C         4.60230346918710    3.30460524631758    6.76406208165916
H         5.01088480069533    3.59112068516987    5.80461952551214
C         5.76434830467472    4.70469581835059   12.47736507317090
H         5.54889750748167    4.56231858262938   13.52419221283573
C         7.90176505784618    3.63287846272953    7.99492072030001
H         8.86817932047784    3.98635390675159    8.35623100150887
H         8.03707778041945    3.16585475426631    7.01866032036169
H         7.53489111625835    2.87487127533309    8.68791854500800
C         4.39048250347305    7.16774361064730    5.94324164583838
H         3.90463268804922    6.27079399364181    5.56316275849087
H         4.43154583236446    7.89602569993398    5.13177319504749
H         3.77406907732878    7.58197665642840    6.73728292352367
C         8.95108802797518    7.67045399828385    8.25911739750772
H         8.58705625454108    8.21234530707300    9.12852322065106
H         9.47261479780743    8.38346719896468    7.61903224761415
H         9.67636039741146    6.92502995077584    8.58099205832676
C         5.92290139965379    8.60855550163453    8.35634307917107
H         4.83643677771705    8.59611386767681    8.39222447763443
H         6.23745935799908    9.57394666334378    7.95687111810774
H         6.30162905549560    8.52867831210744    9.37394995242944
C         6.50638582560587    5.37464945598566    4.40583498680754
H         7.01221365053807    4.41337081800716    4.33314397706447
H         6.91829916674684    6.02356545952345    3.63156591449294
H         5.44869349279657    5.23883364981986    4.19358739902572
C         9.31406415426786    5.74818433793846    5.78806604594184
H        10.05941044667747    5.62126072510290    6.56820549009178
H         9.67868279773774    6.50668081821559    5.09339997332436
H         9.21346749447856    4.81426564770130    5.24203550684530

