107
CSD_code = VARFEA | q = 0 | S = 0 | Stoichiometry = C49H52N2OP2Ru | MND = 6
Ru       -0.30339107528197    0.09893570488666    4.53045003125454
P         0.83221800681642    0.92347946731541    6.32868846055946
P         1.59281628285957   -0.95984278015277    3.84258097704868
O        -1.03363018988060   -2.19307987307848    6.31989696128387
N        -2.32562353628037    2.28245287545171    3.78482591100963
N        -3.30851590179508    0.82289442194315    5.00540855406760
C        -0.84957080800427   -1.29018589777808    5.61259422866239
C        -2.08163029344802    1.18500521879202    4.54906227390569
C        -3.66212214268480    2.59147961370442    3.77477051305929
H        -4.04609842363948    3.42942645804845    3.22878709234124
C        -4.28205559133452    1.67496934948211    4.54617300184629
H        -5.31396662229039    1.54815077964636    4.80394240388903
C        -1.38322186168749    3.06519721625538    3.06150212990311
C        -0.67438285668967    4.06090311819086    3.72959220631142
C         0.24651970458606    4.81422595201740    3.01812782054455
H         0.81874285968129    5.57043882615846    3.53711773079799
C         0.45905157996723    4.59969635639807    1.66489054198508
C        -0.29108161429955    3.62842514601433    1.01550363119652
H        -0.13572484952679    3.45985333297588   -0.04071363923329
C        -1.22097653122569    2.85613705148414    1.69171278137545
C        -0.87684338898052    4.25032317502593    5.19962227680181
H        -0.21101806575766    5.01704146827063    5.58778391858299
H        -0.66714828760783    3.30536877671430    5.70819735869450
H        -1.90711741608043    4.53035057864747    5.42277381906418
C         1.50161104560369    5.37352019143161    0.91607526144768
H         1.78904538186930    6.27020692754090    1.45984547767876
H         1.14015690742120    5.65894164571433   -0.06987470057163
H         2.38909341078640    4.75416974164788    0.78109468240000
C        -1.99556328329528    1.77947738420333    0.99933839857042
H        -1.79448473601588    0.82593922854888    1.49112502416026
H        -1.70791572573116    1.70726550430918   -0.04604915289968
H        -3.06770925139764    1.96755782541124    1.05640365052465
C        -3.60133815951160   -0.21494942572346    5.93038883902259
C        -3.67913456638547    0.11615726677302    7.28264953336800
C        -3.95641999892316   -0.88923666540259    8.19511576608105
H        -4.00046502682121   -0.64571359600434    9.24712885530714
C        -4.17901596558568   -2.19465487044995    7.78181940647623
C        -4.16428964155568   -2.47960920181248    6.42312737689734
H        -4.36637022510452   -3.48848555408028    6.09248781961704
C        -3.88651033602481   -1.50360406963622    5.47918556386791
C        -3.51073329882882    1.54210036292887    7.71123840879734
H        -2.59490440104592    1.96369622898158    7.29907526568087
H        -3.47132007564149    1.61923292310773    8.79369773503922
H        -4.34740425820052    2.14298304422681    7.35167084163505
C        -4.43015867547363   -3.28475608603690    8.77852449689212
H        -5.20987546004619   -3.95812113498864    8.42831689094813
H        -4.72300129221320   -2.87443695048841    9.74196431965614
H        -3.52116547665058   -3.87028752745589    8.91780949933587
C        -3.90549592654829   -1.80631022807500    4.01336437147472
H        -4.69329487241035   -1.23692871023381    3.51895743164755
H        -4.07877979314098   -2.86500944222404    3.84045522869552
H        -2.95433127178896   -1.52267257218895    3.55970244961976
C         1.98233794941971   -0.34669363395155    7.06965002417875
H         2.32336755082892    0.02967247884000    8.04031983831674
H         1.41171993343368   -1.26418165855994    7.24484773492795
C         3.18809297764102   -0.65347074728057    6.18679435803608
H         3.59052424747093    0.28670970172059    5.79766651683730
H         3.96952307670785   -1.11549046878175    6.80222406925668
C         2.85110814500300   -1.60404749034857    5.04260127205294
H         2.41627204656244   -2.52550125907957    5.45242746188691
H         3.75324095026970   -1.88116420711521    4.48581315404878
C         2.58267691968760    0.03683471523727    2.67457862189346
C         1.93011396040205    0.35201354548297    1.48317878550048
H         0.94152317660987   -0.05600951595686    1.31426782441421
C         2.52077749579524    1.18359262159759    0.55515286794446
H         2.00616831302291    1.42089685149274   -0.36477684585389
C         3.77425286628368    1.72177969302954    0.80801591444157
H         4.23784793562789    2.38111814145637    0.08760902260687
C         4.43065525928945    1.41051699383641    1.98450394833294
H         5.40848143046928    1.82583889461996    2.18579045929806
C         3.84116761951190    0.57006531226546    2.91593389681471
H         4.37627035825164    0.34126475779784    3.82581976041333
C         1.47061517132292   -2.50888445768081    2.87136637104694
C         0.36169346635855   -3.32909036029776    3.03474578151927
H        -0.43736149734694   -3.00613164514164    3.68929668443302
C         0.27514797441231   -4.53320632014569    2.35890907555296
H        -0.59126234804510   -5.16531816888749    2.49127319468006
C         1.29717791789616   -4.92659759354033    1.51158467503693
H         1.22980840771163   -5.86462760655367    0.97962771291658
C         2.40650342166709   -4.11340197904893    1.34372747938353
H         3.20447889726070   -4.41800583075809    0.68140841590057
C        -1.10772014472789    0.59987421653296    9.91130078023802
H        -1.50552335137650   -0.21127675491751   10.50425840486331
C         2.49699108413591   -2.91219713042404    2.02221830101648
H         3.36231139270999   -2.27721532125552    1.88513986482461
C         2.06729817685692    2.28125407865070    6.21210224392986
C         2.33654786739278    2.84216914952299    4.97046358760837
H         1.77144544285528    2.51388292754450    4.10944093152958
C         3.31568683561360    3.80999685849653    4.82917908801686
H         3.51276885877746    4.22967902429788    3.85319615348846
C         4.03731054362666    4.23060953234081    5.93192744685192
H         4.80287291039905    4.98625771988167    5.82792612847233
C         3.77641906666751    3.67687288994336    7.17642222465853
H         4.33857545902266    4.00174427879614    8.04079503209423
C         2.80307159536611    2.70669568186710    7.31777891114835
H         2.61005118756970    2.28557396527534    8.29531281984828
C         0.00927489248849    1.35867103656532    7.91350435988920
C        -0.53646907662593    0.33242865637088    8.68184963099958
H        -0.51860961388757   -0.68381209716020    8.31727800329995
C        -1.16791388873624    1.90097831807633   10.38359200015127
H        -1.60682409562149    2.11039629948425   11.34858997100266
C        -0.67000803035700    2.93334256132232    9.60740912065022
H        -0.72673813886368    3.95308107229291    9.96103986113444
C        -0.08550109952219    2.66587996265025    8.38189366806217
H         0.31510645546743    3.48093262444445    7.79552716191031
H        -0.96447087007873   -0.50067510280224    3.26618875981768
H         0.17586891260698    1.23745621141969    3.61047774235502

