84
CSD_code = VARNUA | q = 1 | S = 0 | Stoichiometry = C40H39ClNP2Ru(1+) | MND = 9
C         3.55808060156257    7.44667396375892    2.47058992877951
C         3.14261178537858    8.48002320929547    3.34998809195486
C         2.19343634647871    9.44013214591548    2.94597783159790
C         1.63075714295145    9.41170348653372    1.64575714065262
C         2.12738723674164    8.44507445335450    0.74377503004530
C         3.06159128777838    7.46021327510525    1.15385332032747
C         4.41975990553637    6.32441807374564    2.99290960674286
H         4.95779306866311    6.68953115533232    3.87488170387506
C         3.48586833226565    5.18689848972205    3.42838900599655
H         4.07119594630654    4.37831169906639    3.85702338636765
H         2.93295948698012    4.79780992520696    2.57565589184451
H         2.77330807303214    5.53056499179667    4.17558820997059
C         5.45360561600736    5.82462276664809    1.98507858691136
H         6.10782539948392    5.10414106673864    2.46821198569417
H         6.06480099337019    6.65228985880439    1.63108918803954
H         4.98407919499860    5.33206657662295    1.13666513962320
C         0.47108246050910   10.28549068286240    1.27779778692806
H         0.47842072192833   11.21470477595494    1.84324070255836
H        -0.45660847345211    9.75715932945539    1.50579931413416
H         0.47382874974648   10.51683540644352    0.21444280978011
C         3.08511705528044   12.96968183032615    1.98673666281563
C         2.22021544965188   13.11034348450049    0.90573053011409
H         2.40571781448574   12.53698321108533    0.00698146834602
C         1.14331821888093   13.97303509920167    0.98723392599229
H         0.48199163814164   14.09240340336858    0.14218987666398
C         0.90990073743440   14.67834056233222    2.15833409234539
H         0.06935596156814   15.35183365162890    2.22327411258344
C         1.74991252534966   14.51413177844272    3.24858651773818
H         1.55991356181070   15.05555783373319    4.16266175524341
C         2.83495036199728   13.65904882811532    3.16962422100644
H         3.49371643332992   13.53121535639429    4.01708618861621
C         5.68221715551770   12.45174505982535    3.01521199558637
C         6.09821005814985   13.77435821236115    2.86934238749018
H         5.68804117439104   14.38618920642245    2.07874635224243
C         7.03074631064331   14.29591991217717    3.74517750158221
H         7.36427057727423   15.31536549352180    3.62581768244152
C         7.53071391554357   13.51557231879152    4.77683946207108
H         8.25980156071806   13.92798215209986    5.45718408576898
C         7.08891007568800   12.21339129450802    4.94314196826433
H         7.46755878452171   11.61280363307125    5.75581593890690
C         6.16365259506919   11.67806430066631    4.06477948453080
H         5.81945091149103   10.65996380661866    4.18166550249065
C         6.14571567540371   12.88755785585957   -0.06039513355202
C         7.45045240240340   12.46771129940584    0.16603508317815
H         7.62081373617467   11.48567951568792    0.58506041885960
C         8.50620384518006   13.30836657213981   -0.13599424144301
H         9.51802209514483   12.97757606648199    0.03893206836128
C         8.26389800346256   14.56966639170840   -0.65458032394078
H         9.08818200840112   15.22445000944562   -0.89074827551550
C         6.96245444910839   14.99619589713583   -0.86095228483586
H         6.77061826645422   15.98347908354271   -1.25247761430416
C         5.90070506452842   14.15944585315319   -0.56351802151564
H         4.88262105436592   14.49531395982312   -0.70259492013657
C         6.20435560866549    9.94059709661688   -1.38712948379895
C         6.74349234215208   10.80223366585565   -2.34007245400724
H         6.31277965111070   11.78264047682480   -2.48935761537291
C         7.83101369751725   10.39307868209684   -3.08765150377173
H         8.26215282128567   11.06290483114984   -3.81589145302421
C         8.36184103623131    9.12436284121969   -2.90844946382777
H         9.21134553761137    8.81025174024421   -3.49524726728084
C         7.79947709998045    8.25571894522801   -1.98768451815998
H         8.20504427515080    7.26366243606730   -1.86056714318881
C         6.71780993225792    8.66024481822627   -1.22592630338591
H         6.27525297573796    7.99485311087879   -0.49788497359709
C         3.62084065275827   10.79490588529150   -1.84923620231944
C         3.10080926451743    9.65999773108817   -2.46650067748866
H         3.38443114882030    8.68395611872751   -2.09066271950754
C         2.25700615122071    9.78505731735409   -3.55303707706979
H         1.85398400354685    8.90528318575742   -4.03160098880077
C         1.93428533114421   11.04624331364149   -4.03203777985293
H         1.27471743646723   11.14639534127093   -4.88011548414996
C         2.46638456325024   12.17596533622513   -3.43258900061594
H         2.22694932115199   13.15536587422698   -3.81850644926703
C         3.31089623509007   12.05525737095154   -2.34207992665470
H         3.73756469132654   12.93328521210058   -1.88110353477414
P         4.45604789502762   11.78887538775177    1.86006100365990
P         4.74451139758020   10.48105241302707   -0.45655519997957
Ru        3.92330415631402    9.57370862951481    1.50707931328006
N         5.05121826003602   12.02241106064533    0.25201613558125
Cl        6.24909012521515    9.35337190769709    1.87784153307782
H         3.48424294247542    8.46719137051170    4.37997533028224
H         1.81553736100345   10.15667794840172    3.66997408170144
H         1.68383155967849    8.37747693998829   -0.24526053430296
H         3.32082917182912    6.66263474547999    0.46805722676119

