67
CSD_code = VARPOT | q = 0 | S = 0 | Stoichiometry = C30H34Si2Zr | MND = 12
C         6.61013704633448    6.53840414171043    0.03490852303612
C         5.93825562888214    7.71373265110683    0.01231918347425
C         6.59854085580363    9.04183354146263   -0.00892414752110
C         7.29857280524900    9.49991816392119    1.10179998970397
H         7.33833832281923    8.88285605089822    1.98824648078316
C         7.92347815086889   10.73312690522561    1.07915050273665
H         8.46088828821950   11.08220347491400    1.94972826774510
C         7.85881499852716   11.52318704013342   -0.05615595942373
H         8.34757717223353   12.48645834143507   -0.07505366881499
C         7.16253360318876   11.07530242678833   -1.16655029797238
H         7.11066407020976   11.68959676246196   -2.05407136720074
C         6.53232918567177    9.84537228379343   -1.14256255937345
H         5.99130287776489    9.49422998139948   -2.00970426488378
C         5.66620940984998    4.96881680850334    2.45665522650052
H         6.05615319969459    5.84199889332936    2.96550300235357
C         6.42810737359703    3.88652025882984    1.95928278373097
H         7.50478188293121    3.78535769103442    2.02624108667828
C         5.53223029050789    2.89289876006632    1.51636520713565
H         5.80897792492899    1.89089325139411    1.20861427549058
C         4.21549761914256    3.36443785642217    1.71717235878060
H         3.30496674713040    2.79001478815142    1.58213040546954
C         4.29942670528857    4.64506405421187    2.31087194718759
H         3.46720594726787    5.22046473906339    2.69772925731726
C         9.41699720160461    7.45962208778319   -1.22304515505056
H        10.45567773997690    7.15717930005460   -1.31220084630225
H         9.39925193904577    8.49763519042050   -0.90629921605069
H         8.97432251390139    7.41606625429114   -2.21336678674448
C         9.31756798660750    6.54682167169041    1.71294226600405
H        10.27941924035423    6.04386478024499    1.72680815383193
H         8.71657618104527    6.12946964837606    2.51557883638495
H         9.49487003376213    7.59297854341957    1.94082898040691
Si        8.46947540035263    6.34554628898880    0.00710202768242
Zr        5.19575082161020    4.86890373109177    0.00002673395879
H         8.73239830544318    4.91741203374342   -0.41828646730447
C         4.45325116333157    7.71372975912997   -0.01228777322387
C         3.78137548623542    6.53839881925492   -0.03484418334134
Si        1.92203713950123    6.34553853779841   -0.00706735153692
C         0.97458226513096    7.45950040907402    1.22323316713722
H        -0.06410739749034    7.15708738163335    1.31238422901942
H         0.99236046674020    8.49754732231219    0.90659736956129
H         1.41728601075239    7.41581783020068    2.21353798451755
C         1.07387423402730    6.54697415889161   -1.71285349470807
H         0.11200553200541    6.04405018725722   -1.72671459493755
H         1.67481451611653    6.12966570763419   -2.51555224198350
H         0.89659742041407    7.59315545967703   -1.94064604349239
H         1.65910317680202    4.91736452009765    0.41818173589013
C         4.72525307603738    4.96894060703358   -2.45660152632613
H         4.33528123271934    5.84213762470756   -2.96540134256724
C         3.96338632886296    3.88660310382087   -1.95927411152452
H         2.88671340194944    3.78542186343470   -2.02622634744750
C         4.85928966809523    2.89298060597271   -1.51641388725682
H         4.58256783191039    1.89095309459097   -1.20871140272805
C         6.17601051837977    3.36455874173493   -1.71721419483424
H         7.08655599345227    2.79014925235826   -1.58221128427339
C         6.09204449261922    4.64521368827259   -2.31084967935384
H         6.92424725941173    5.22065635685316   -2.69768419552993
C         3.79296094290621    9.04183031007362    0.00889387077797
C         3.09294541223123    9.49985935903490   -1.10186380706289
H         3.05319949389625    8.88275485577462   -1.98828129416062
C         2.46803570059929   10.73306693772456   -1.07928536922526
H         1.93063943974119   11.08209925124239   -1.94988931451689
C         2.53268292979880   11.52318495157204    0.05598159440634
H         2.04392103492709   12.48645752477442    0.07482236171654
C         3.22895115583462   11.07535848104671    1.16640767657651
H         3.28080981973884   11.68969960732472    2.05389687528241
C         3.85915602428723    9.84542667126564    1.14249252625243
H         4.40017075922055    9.49432862206950    2.00965928914145

