89
CSD_code = VARPEL | q = 0 | S = 0 | Stoichiometry = C48H28N4O8Pd | MND = 4
Pd        7.61032283185762    7.11410495489651   -0.00001579387780
O         1.66972536435575   -0.56633386354492   -1.86031090395997
O         0.12734985955685    1.04361942279785   -1.87043901375193
H        -0.46195115513984    0.29557091831297   -2.05338277234156
O         2.35522941716580    9.22862755784567    8.01281786821914
H         2.00539944523510    9.37086236127247    8.90594096004112
O         4.14669636240747    8.54639786717052    9.15141098767619
N         5.99137578887520    6.38357330495656    0.97173135672058
N         7.96096787562326    8.38373146414402    1.53915096672359
C         1.39023180716342    0.60173099100000   -1.74814199973237
C         2.36520708917547    1.67637079385005   -1.46860447668116
C         1.97703388069741    3.00979934093048   -1.35988804504591
H         0.93842832450884    3.27337121711384   -1.48348622172100
C         2.92078290861474    3.98189276859475   -1.09626452973006
H         2.62523595517042    5.01767268542782   -1.01643340889972
C         4.26393349805134    3.64387667573761   -0.94374229407954
C         4.64763681019687    2.30875825261640   -1.05530419178846
H         5.68682537536061    2.04438081134089   -0.92726015464749
C         3.70725219864965    1.33312760164882   -1.31229403744610
H         3.98841512336917    0.29437314977974   -1.39647025434035
C         3.60703744922629    8.74703659903938    8.09140996412759
C         4.22539412796274    8.49808081644975    6.77261096854633
C         5.52241175598662    7.98885762649703    6.73092842041965
H         6.03020615782834    7.79083621761632    7.66265526650295
C         6.13409621015989    7.74597450088940    5.51880844495247
H         7.13601840405324    7.34449412488467    5.48439993522008
C         5.45933077239907    8.00165043644644    4.32655982754674
C         4.16170940859648    8.50746946362322    4.37302642959019
H         3.64225756318571    8.71229130313287    3.44848086205839
C         3.54781971931702    8.75794506094894    5.58352701616691
H         2.54533593434451    9.15451718345524    5.61800373293703
C         6.25603080420408    4.92464169407703   -1.62209037798149
C         5.26859677244226    4.69140220792905   -0.66431096261481
C         5.17102681449498    5.38138319535249    0.54459087728184
C         4.18980847512425    5.09536482567262    1.55494958156183
H         3.43923050243562    4.33298006298495    1.48611043694929
C         4.42333010790414    5.94374460169462    2.58198671457569
H         3.90082923742543    6.00918638403502    3.51582104096242
C         5.54920306271668    6.75463235952896    2.20724885424394
C         6.10774966227235    7.73793235589116    3.02484917744821
C         7.23834277166501    8.48457663219123    2.69152861795310
C         7.80290280165038    9.50722997526758    3.52879988778740
H         7.42006164435398    9.80122937725170    4.48597034133650
C         8.87610230696549   10.00494107365411    2.87336187477956
H         9.55152648064613   10.77074415357947    3.19980367312076
O        13.55163187513845   14.79403435071080    1.86019137492373
O        15.09373741865236   13.18382926530367    1.87095774537672
H        15.68306605002270   13.93175874387715    2.05430987841237
O        12.86501200701159    5.00003062295370   -8.01330212134138
H        13.21473390183206    4.85782611065872   -8.90647143014567
O        11.07340757224708    5.68230037954759   -9.15165483173979
N         9.22937736359768    7.84450511735747   -0.97168121652566
N         7.25978921194482    5.84433726022545   -1.53908869021241
C        13.83101631715033   13.62600991567022    1.74764225916685
C        12.85585704243412   12.55136938895253    1.46875340433253
C        13.24388102059576   11.21788806596959    1.36015697285995
H        14.28245123104344   10.95420823626231    1.48381239558666
C        12.30004066910130   10.24589617528231    1.09648663649650
H        12.59546296233862    9.21007321080281    1.01673966317761
C        10.95694136747568   10.58406327097527    0.94385477550942
C        10.57337883157004   11.91921854360039    1.05537617519912
H         9.53424448679554   12.18372964476072    0.92713334423425
C        11.51384826850998   12.89473623621766    1.31249342086368
H        11.23283154384494   13.93356462470634    1.39635583206348
C        11.61321326653463    5.48167713948277   -8.09172804705285
C        10.99495333648713    5.73042993615856   -6.77284562746275
C         9.69793775093400    6.23964464516038   -6.73099327090763
H         9.19006336439907    6.43778151248618   -7.66265249819542
C         9.08637422011172    6.48242144757634   -5.51879183179071
H         8.08445514428636    6.88389608695506   -5.48424679648249
C         9.76124666941791    6.22662054631976   -4.32663153543593
C        11.05886046230425    5.72079655911661   -4.37326643367311
H        11.57839425328633    5.51586740914268   -3.44879031456681
C        11.67263502790025    5.47043746180940   -5.58385057518504
H        12.67511373450464    5.07386408714277   -5.61846323716370
C         8.96474633284738    9.30340398807278    1.62215964409031
C         9.95219241047929    9.53662460215562    0.66439286452907
C        10.04974686692658    8.84666741380814   -0.54452088098422
C        11.03100144805378    9.13265798234148   -1.55485378416019
H        11.78161874624318    9.89500285349814   -1.48598189590252
C        10.79742395864788    8.28434362244164   -2.58193194488467
H        11.31990503854498    8.21892891637580   -3.51577841776953
C         9.67151156844455    7.47349589511035   -2.20722661945815
C         9.11291893993003    6.49024748739754   -3.02485606178515
C         7.98236746910955    5.74355728334126   -2.69150067307669
C         7.41784249935541    4.72087407168242   -3.52875731864504
H         7.80066512483138    4.42691390609272   -4.48594626017070
C         6.34467828801890    4.22311310970469   -2.87329955116776
H         5.66926722884028    3.45730236480738   -3.19974916774558

