87
CSD_code = VARPAI | q = 1 | S = 0 | Stoichiometry = C41H41ClNP2Ru(1+) | MND = 9
Ru        1.62905066128130    2.20624480476600   14.66176018654820
P         2.50705108765581    0.06867535552707   14.80600689957813
Cl        1.45062127077795    1.82627932506275   16.98897071183310
P         3.86193782373785    2.33821674139763   15.21955746707595
N         4.07015278914342    0.62293027310379   15.27278896523319
C         6.21390795598341   -0.44479307774500   15.75501124900449
H         6.51954860579323   -0.26746692446403   14.73325681977244
C         5.01647583095555    2.87417491272325   13.92758300185305
C        -0.48023517249389    2.14870812430253   13.71655003353815
C         4.58244409526857    3.03316172732354   16.72826068380635
C         1.47030308895497    3.12115066312311   12.55675278275359
C         1.47877610840625    4.15206143755939   13.53009293444962
C         0.51594365673064    2.09173963699558   12.70754462990663
C         4.95989229531239   -0.02648700375718   16.18456631298733
C        -0.51237604628839    3.21406669865960   14.63347339110005
C         1.98562054018958   -1.26602059579753   15.91789083478498
C         5.91576095681903    2.75097702947043   17.02237085722463
H         6.49892464094130    2.13684320225719   16.35110544894015
C         7.07332799779106   -1.06293985618791   16.64275909861083
H         8.04643589424761   -1.38606890750074   16.30359668348247
C        -1.64919825035117    3.39881271663003   15.60746438738872
H        -1.31859661724660    4.08865415743474   16.39185077163089
C         3.84359177239598    3.86786739189707   17.55831096615421
H         2.81665772896517    4.09774162663626   17.31121486809468
C         4.42512020601959    4.38708965380556   18.70150036459124
H         3.85139462880044    5.03086140105521   19.35041645997544
C         2.76023034312534   -0.90397336018407   13.29237232355115
C         0.51334077482060    4.19345235136285   14.55378130251590
C         5.15734229677573    2.10003834560880   12.78005510395298
H         4.59805007861555    1.17773973493144   12.69574331303925
C         5.68746836246357    4.08924681520308   14.03179862511933
H         5.55971681979017    4.69969190990556   14.91500434340476
C         6.48378271065488    3.26610751358805   18.17155942793333
H         7.51198434765083    3.03832961753816   18.40789119842387
C         4.58986747473480   -0.21140940053023   17.50967760363937
H         3.62334956462717    0.14336566686059   17.84001244226044
C         6.70612509288033   -1.27251982762604   17.96884009253005
C         1.20429149404071   -3.37460294310177   17.52388624686435
H         0.90434999389941   -4.19287685882709   18.16043184931182
C         5.73846042184814    4.07737584948826   19.01397181002035
H         6.18669966629749    4.47550967172622   19.91136752808449
C         1.68069289945537   -2.05398038617670   11.47720774374159
H         0.78161853999465   -2.35109323488795   10.95866351506661
C         2.84645418167209   -2.34451884779894   16.10986347354146
H         3.81259683416165   -2.35929211085341   15.62501013317263
C         1.60056158938174   -1.28745162769995   12.62367332992860
H         0.64072123568256   -0.98881151663987   13.02841494493439
C         5.45652345086131   -0.83341564469922   18.38861387336816
H         5.15654623036759   -0.97339614068052   19.41602752247741
C         2.35001945135301    3.18639511109197   11.34619131820843
H         3.27208522857393    3.72510574879909   11.55294888333117
H         1.81957585782520    3.71518901140613   10.55190775739293
H         2.59497191418773    2.19051475532877   10.98251675721089
C         2.92153252161473   -2.44641906374184   10.99731307104460
H         2.98673096838900   -3.04393322689415   10.10117111630707
C         3.99977493344646   -1.31478091278351   12.82095847746566
H         4.89649852987293   -1.04327371191170   13.35739671489734
C        -2.81308550376650    4.04821023082459   14.84661135511880
H        -3.63273873085869    4.24492569402658   15.53191773731611
H        -3.17272198346205    3.38842904294817   14.05951847795553
H        -2.50708064434653    4.99021501412633   14.39579529212288
C         0.72192226031055   -1.26366453600133   16.49387940185981
H         0.05584185935423   -0.43079228191404   16.31799439482102
C         4.07556396125919   -2.08412318638680   11.67234423256026
H         5.03873941592328   -2.40602901396329   11.30600840034833
C         6.68970728617985    3.71072483984510   11.88303923072725
H         7.34977951591381    4.03245188367802   11.09230150370600
C         7.64954545166295   -1.95008399356670   18.91070834911120
H         7.23592209096321   -1.99429681764175   19.91406353653028
H         8.59871736864079   -1.41793321655026   18.94642088637556
H         7.85458255601533   -2.96537858539579   18.57400006092644
C         6.52473184997194    4.50085350842367   13.01006569885057
H         7.05235773773728    5.43867636843310   13.09427233247267
C         6.00282310963860    2.51164545209913   11.76669003931776
H         6.12279679627831    1.90261632415056   10.88322557037299
C         2.45522321537466   -3.38901682672743   16.92531871932691
H         3.12520127971578   -4.21902520669186   17.09013767468339
C        -2.09288279353498    2.10077856450028   16.28056899904370
H        -2.84044373473273    2.32415230676276   17.03675366566302
H        -1.24627059864088    1.62486368594834   16.77120171073987
H        -2.53479365132801    1.40778093405769   15.56829609044636
C         0.33496364557793   -2.31991532059705   17.29922831884839
H        -0.64384678039501   -2.31805788132994   17.75393493775880
H        -1.27120731142358    1.40822751884123   13.71757451700828
H         0.46321697443112    1.31307543884450   11.95226588026828
H         2.18592192661665    4.97029994507937   13.42680303783593
H         0.48691607206470    5.04219631208632   15.22963129482341

