91
CSD_code = VARSEN | q = 0 | S = 0 | Stoichiometry = C48H38N2P2Pd | MND = 4
Pd        7.89775694865182   -1.25374830993695   25.90747884511359
N         7.37622971732950   -0.09338765406080   24.13245007924754
N         9.67583108228872   -0.09821455402082   26.42985736293797
P         5.94188692771871    0.24726541428841   24.75284318997490
P        10.58030131635708   -1.41550213968094   26.35411377734183
C         6.22587417677109   -2.27167488883345   25.54929270764415
C         5.24926473897611   -1.38575189045702   25.06674603811278
C         3.95246102312588   -1.78048838810031   24.76555857047456
H         3.22761532435435   -1.06351518428058   24.40253667761680
C         3.60990701763502   -3.10980621844213   24.93057975787336
H         2.60781589084733   -3.44324250659650   24.70156695965027
C         4.56101403772143   -4.01557721987009   25.37566453821927
H         4.29182462100168   -5.05753851984504   25.48388390956327
C         5.84848988606104   -3.60656195428267   25.68961247071563
H         6.55784750079115   -4.34383532374631   26.05035843489231
C         8.20173565592911    0.75283929236001   23.41386949631767
C         8.01977283374202    2.13206484491264   23.32274177677429
H         7.21218919915474    2.58705318468509   23.88337957882193
C         8.85973137817250    2.90151969313615   22.54448421091643
H         8.70353914811079    3.96942005667721   22.48811312788732
C         9.89883470415466    2.31472748974616   21.84252831287461
H        10.55591003825052    2.92097836835612   21.23690899715670
C        10.08881540012302    0.94451751232364   21.92466575637985
H        10.89443975711400    0.47425706678319   21.37784124181049
C         9.24919879564678    0.16876975734644   22.69482309112298
H         9.37250832057041   -0.90424587615967   22.74659069028962
C         5.89552077032374    1.24156893266203   26.30267147235012
C         5.72959842349733    2.62220557175650   26.25389898552736
H         5.54387673349842    3.11234602686123   25.30702482216743
C         5.79215890050066    3.37219182341529   27.41503791038522
H         5.66456207036229    4.44402461627161   27.36845240245171
C         6.02321472448263    2.75173299897831   28.63177000199855
H         6.08217434091411    3.34073105093889   29.53517439539328
C         6.17734084430804    1.37488633833867   28.68840750823139
H         6.35067049386408    0.88767662002592   29.63687606707484
C         6.11573481246568    0.61676654684128   27.53101379465681
H         6.22270314984549   -0.47138021703690   27.58786723012378
C         4.78989536039212    1.07369643774238   23.61665554128846
C         5.06986009370749    1.03715896577755   22.25630994119092
H         5.99308010184611    0.58705980821882   21.91785541191176
C         4.17439657706586    1.57953280987234   21.35226881257340
H         4.39708219411650    1.55981484991480   20.29559836945075
C         2.99223499793558    2.14413301905390   21.80311270191363
H         2.29310604511365    2.56783488957269   21.09720248079444
C         2.70039289180856    2.16082030675577   23.15812137298517
H         1.77255349019869    2.59128428155508   23.50630201420534
C         3.59445012045430    1.62425503615549   24.06623336990339
H         3.37180122422134    1.63019602669407   25.12487091982264
C         8.37664350570849   -2.41244994122060   27.45269612123416
C         9.77458234551900   -2.51882897544509   27.52804532210876
C        10.42362168234700   -3.29605963375472   28.47832663003010
H        11.50389637254636   -3.35744584254300   28.49726488973029
C         9.66128539085009   -3.98188663073257   29.40566892319623
H        10.14209753953025   -4.59170714945225   30.15715761286759
C         8.27917501073458   -3.87174552648908   29.37741109596146
H         7.68996834514566   -4.39493817424247   30.11833515545678
C         7.64113108891547   -3.10709490553909   28.41227356760737
H         6.55724688043993   -3.06092450895019   28.41427969419355
C        10.73357655964313   -2.26253682339282   24.72509323443364
C         9.71251812492012   -3.10651843357261   24.28607334297028
H         8.86597881215191   -3.33918394646550   24.94090447111397
C         9.77914390356247   -3.66859692476980   23.02190629552415
H         8.98590584074345   -4.31994514596404   22.68495993533598
C        10.85296950120969   -3.39273710021850   22.18916975681300
H        10.89505645767669   -3.82294583143542   21.19935800005762
C        11.87330980109313   -2.56514243752963   22.62797117176103
H        12.71503236237395   -2.35344516617151   21.98450874785352
C        11.81592027128945   -2.00176060534192   23.89041589206985
H        12.62056788066319   -1.36253712405773   24.23005343996348
C        12.28426667929136   -1.20527468104705   26.94753586267569
C        12.58820439708324   -0.07560375825174   27.69669539181756
H        11.83100773953660    0.68238187740879   27.84285571528898
C        13.85114766007342    0.07250735707198   28.24106073703421
H        14.09026226131021    0.95576306081629   28.81477483170194
C        14.80576779231700   -0.91379428617649   28.05327956177565
H        15.79141345060447   -0.79887922745357   28.47968752633097
C        14.49756109997745   -2.05235198447678   27.32499237105759
H        15.24008553473036   -2.82555127645361   27.19009621860336
C        13.23857131877900   -2.20205171038891   26.77336552606676
H        12.98917192787339   -3.08872550079107   26.20583209887756
C        10.00871923069204    1.16598687073994   25.97463242136469
C        11.09317265606454    1.43501175742244   25.14077913989958
H        11.69204903856809    0.60530006132333   24.78557168132419
C        11.38809632959776    2.72943770574393   24.76583841761299
H        12.23218731574259    2.91637988198022   24.11734235240919
C        10.60832615693041    3.78303380311105   25.21151462457253
H        10.83957130956795    4.79456376137598   24.91249642682577
C         9.52968673129466    3.52826217547477   26.04325466176695
H         8.91657413371999    4.34351317470283   26.40193709106326
C         9.23424428634263    2.23802251504345   26.42839422844911
H         8.41138147129429    2.03154045745404   27.09847468707603

