87
CSD_code = VARTEQ | q = 0 | S = 0 | Stoichiometry = C39H39ClN2O2P2RuS | MND = 6
Ru        3.48641545676352    1.15917937979152    4.94759544440376
Cl        3.59997397946728   -0.89776787943800    6.14533852442821
P         3.10014885123484    2.98564050142090    3.63072671451516
P         5.60845498253150    1.96488074135608    5.50991373426089
S         2.36541546909478    2.25048753247612    6.76639874744633
O         4.31841375245329    0.08629401282345    3.38964544167533
O         2.14584060786575   -2.05531381021417    0.56238313277496
N         1.41440613346801   -0.29116807129542    3.46770866583816
N         1.69182700516066    0.46521939985820    4.45326766367833
C         3.69080175132848   -0.63055433656986    2.58434698485198
C         4.53801437581521   -1.34894491457223    1.56983967932051
H         5.58640230449540   -1.15521287286871    1.79219655517540
H         4.29570944519957   -0.99681408028411    0.56968171571595
H         4.33819690423193   -2.41705930296561    1.59367905461687
C         2.25907657828265   -0.79448120127305    2.57574845251919
C         1.58380408515555   -1.57815197462844    1.53126437667091
C         0.58797372094093    0.83048111166339    5.21284434998138
C         0.09016238364850   -1.74633217400989    1.71358306345711
H        -0.29900909274065   -2.35377498522236    0.90024820245094
H        -0.39484199762638   -0.77351528589809    1.71056579926453
H        -0.11148570755379   -2.23144981480736    2.66484292151145
C        -0.70761000415978    0.39590368615829    4.90020770388453
H        -0.83263878781693   -0.25880976892626    4.05401915288156
C        -1.78851108816102    0.79592234739908    5.65289829388693
H        -2.77626589203269    0.44798048679945    5.39019612111489
C        -1.62044951800068    1.64301591022581    6.73976328987549
H        -2.47033596479916    1.96155415584102    7.32315955378117
C        -0.35137209601641    2.07818511219222    7.06948965121291
H        -0.19755551475734    2.74435726312775    7.90559885257889
C         0.73837343641019    1.66539337985270    6.32317225732251
C         2.55904192908638    1.34030811159189    8.33224182477591
H         3.46127978370561    1.71699994846888    8.80468558043796
H         2.65406925182878    0.28035728230268    8.10391728329262
H         1.68962057083190    1.53919403009845    8.95120287028863
C         3.63163755815090    4.58431426725113    4.38223281200323
H         3.27473910059298    5.39799737311374    3.74217733188886
H         3.17372163425396    4.67758207301361    5.37130249980442
C         5.15352255064713    4.63602237588067    4.50384619741868
H         5.45512143203632    5.67763548949525    4.65707648970351
H         5.59339234592453    4.30021313084401    3.56037209014326
C         5.70680185368518    3.81107313315444    5.66642974713843
H         5.15144918859572    4.05111764963403    6.58174473614408
H         6.75233655443738    4.08094929263750    5.83678428081265
C         1.32466581059622    3.22911468816542    3.31850207089889
C         0.50872514979740    3.94222560574618    4.19092562819423
H         0.94415088024803    4.48391200941215    5.01842003009579
C        -0.86226300533147    3.95326593366748    4.00710893629305
H        -1.48917911058103    4.51065632284202    4.68745054499066
C        -1.43160562079360    3.24212559834240    2.96473076604870
H        -2.50297277758847    3.24474615842580    2.83095601533916
C        -0.62590414318042    2.52235164851407    2.09686416748205
H        -1.06767417448388    1.96582470123160    1.28320686491885
C         0.74392472500620    2.51114233666354    2.27377812766835
H         1.37734624283175    1.94317711414780    1.60326370970754
C         3.80049974153426    3.18993371830880    1.96036032561133
C         4.91939720852409    2.45515034331130    1.58706300265634
H         5.33741848956132    1.73716458939940    2.27843499648462
C         5.48947966808421    2.63897031750071    0.33921934254524
H         6.35846479409464    2.06234741359003    0.05817839389880
C         4.94469312827773    3.55742319274127   -0.54150879521233
H         5.38470384248397    3.69894811637103   -1.51760998848243
C         3.83040754883861    4.29605647758306   -0.17223750369330
H         3.40573655872799    5.01309623867499   -0.85975886693435
C         3.25960581143715    4.11834562275475    1.07346434754686
H         2.38779025141382    4.69140832975480    1.35984591813319
C         6.52915404539800    1.52294537221111    7.03132519537449
C         5.98299953132358    0.63868100099244    7.95152844183729
H         5.02844290915774    0.18031851875185    7.74130589220174
C         6.68222921811291    0.30365364860399    9.09933354610817
H         6.24794933549735   -0.38676303756788    9.80756829965941
C         7.93492580524743    0.84195901481930    9.33151854942258
H         8.48131795910388    0.58354772168724   10.22695268313905
C         8.50018599201444    1.69856668779409    8.39895435952644
H         9.49001460928903    2.09956119042217    8.56396523260371
C         7.80681444188010    2.03377915077275    7.25261012583270
H         8.27143350077855    2.67747345810469    6.51846926663887
C         6.91665248810241    1.49499621724501    4.33345972949814
C         7.72641138308295    2.35447901517323    3.60197375595226
H         7.62865793020441    3.42565067549809    3.70055199634276
C         8.67091826038143    1.83710717074238    2.73098151102753
H         9.29695656332934    2.50967508862842    2.16180878180404
C         8.81572819534322    0.46808019607191    2.58658226982322
H         9.55121046565320    0.07239034396709    1.90130753041595
C         8.01884307185379   -0.39438608690965    3.32437166719389
H         8.13592684684080   -1.46322723633701    3.21789606141701
C         7.07504899759720    0.11602692533227    4.19369104607864
H         6.43899811667966   -0.54281021868019    4.77344817890192

