46
CSD_code = VARTEN | q = 0 | S = 0 | Stoichiometry = C14H25N3NiO3 | MND = 4
Ni       -0.60056938523352    0.98593542338598   11.97822319549682
O         2.06287456991107    0.24920832681004   10.92956776338103
H         2.20831449910685    0.69947299798439   11.82927807642672
N         0.70241388016121    0.27442444522151   10.76870789503592
C         0.21152391793532   -0.23247857168557    9.68101960197362
O        -1.79035167477870    0.39693895674293   10.71779293521459
N        -1.96400332479988    1.69718870466559   13.15784824805532
C        -1.25125320638754   -0.16623743677660    9.64743201515213
O         1.79539564433265    1.40021938756219   13.19214224887820
N         0.52443574134451    1.51682389674446   13.27311303029654
C        -1.46419722266103    2.08827636159418   14.29320703240710
C        -0.02973282761020    2.00313059446746   14.36591120629451
C         1.07616284083933   -0.85012791485849    8.62899412644099
H         0.64169460382734   -0.67660565974878    7.64440584013002
H         2.06075576828240   -0.38041756747835    8.66857755398991
C         1.22375880531094   -2.35310336103366    8.88059932048358
H         1.68959287466560   -2.52586723779595    9.84751311685804
H         1.84720317675555   -2.80129257806763    8.11090088480784
H         0.25002591791188   -2.83768323986311    8.87201893010285
C        -1.98919545899225   -0.64373730058737    8.61944035824206
H        -1.50413639657190   -1.09644411829369    7.77021873234223
C        -3.47781354161483   -0.58305386940205    8.59909725305907
H        -3.90235128869728   -1.58641991876746    8.54311045268254
H        -3.83597657194578   -0.09409146106903    9.50055237144603
H        -3.82674280985002   -0.02920022754996    7.72655675616244
C        -3.36637522998071    1.78406040030750   12.82266463784936
H        -3.66347796828491    0.82062854944790   12.39918719758567
H        -3.98740412860903    2.00138677938107   13.69657923433677
C        -3.57294486308590    2.86035449536341   11.75542685906497
H        -3.28793828239228    3.84058425516620   12.13194945421229
H        -4.61555374981497    2.88728649944215   11.45060127824285
H        -2.95475842896142    2.62329230577200   10.89202164372012
C        -2.26403781970150    2.60314829004468   15.45855612247570
H        -1.71616310786670    2.40829960736861   16.38018663813882
H        -3.21266664936653    2.06843453010287   15.52726301709373
C        -2.52788873195592    4.10614783918920   15.34108407493794
H        -3.11800833106939    4.32838249212338   14.45627914601548
H        -1.59044789769452    4.65165833971559   15.27403801049698
H        -3.07015708767274    4.45789543046759   16.21552218193035
C         0.85120613214079    2.43612017467243   15.50283808182091
H         1.64266883076866    1.68844719465696   15.60803281976543
H         0.29375450338086    2.48417553848373   16.43736105585126
C         1.50519063766665    3.78926236466998   15.21144690237764
H         2.10285447628575    3.72176774082622   14.30616793507165
H         0.75355483833808    4.56382650327333   15.07525869149713
H         2.15546432663344    4.07548203732461   16.03420607215907

