109
CSD_code = VARTOZ | q = 1 | S = 0 | Stoichiometry = C51H53ClP3Ru(1+) | MND = 9
Ru        0.13676276194128   22.82011646603965    4.21885780106562
Cl       -0.69742592981047   23.03998458203702    2.02873284356976
P         0.75544211981351   20.65984225459783    3.71542149366787
P         2.04500588497157   23.47697330236052    3.12778922250462
P         4.49986275234645   19.02374427415886    1.15661788387177
C         0.08865535028038   22.85751565262422    6.57770015258706
C        -1.11735576812414   22.29784958297511    6.08013233332678
H        -1.45962099060955   21.35095806764015    6.48584065129298
C        -1.93606997277404   23.01231709868661    5.19394721766880
H        -2.89975171699933   22.60385193100519    4.90646574838765
C        -1.59315029455952   24.32850503881958    4.78237783811881
C        -0.36768306678478   24.85372782382811    5.21123356381921
H        -0.08923244608813   25.86709537147462    4.94950734239788
C         0.47802987596076   24.11331510940128    6.07545217493133
H         1.37208297417266   24.58791186095402    6.46896716081624
C         0.82034826563379   22.20231037591647    7.71020239104802
H         0.25755166408398   22.36698590310232    8.63086131646666
H         1.81248140446476   22.62823707454227    7.84249988736785
H         0.90882920481740   21.12730158726986    7.56474212808508
C        -2.59834327597493   25.13993753113994    4.00460249085408
H        -3.16679534710996   24.45524358221220    3.36447811866114
C        -3.56212156238349   25.77478241548683    5.01661585725765
H        -4.05040404250151   25.01665009339951    5.62575456150844
H        -4.32707391112995   26.33732183907235    4.48883110767647
H        -3.02623789192893   26.45588979917119    5.67528799857263
C        -1.97278574918432   26.20909815175058    3.11183840369551
H        -1.52032859897100   27.00780587632762    3.69606870750779
H        -2.74349538317564   26.64944430300375    2.48529503911321
H        -1.21674525228960   25.77096651048253    2.46359096343697
C         2.60824650434939   21.14457245987672    1.50220785000167
C         2.36782599293450   20.47555886891012    2.86120808571854
H         3.11899827796562   20.85238375980681    3.56301099961403
H         2.52728936393439   19.39813036756329    2.74048400204001
C         2.42667806819168   22.68360315867665    1.52085170907353
H         1.59772740893593   22.95173247255373    0.86111473227796
H         3.32872773824030   23.18120508177570    1.14620828710414
C         4.06711540862253   20.85007969305155    1.11655574729346
H         4.74642508016135   21.39650474940901    1.77699611937881
H         4.24056401648005   21.19256615254748    0.09421920535035
C         1.66149626215434   20.55203516278600    0.46148234295424
H         1.79615386710643   19.47387570792334    0.39722649027657
H         1.85700217849338   20.97876246642282   -0.51952907939098
H         0.62879650389323   20.76439039561237    0.73431534752347
C         1.01839307928651   19.63481884508475    5.20255934848326
C         2.25883596648175   19.42135292960908    5.79618387163152
H         3.15926980941788   19.83916669904156    5.37459148622226
C         2.35721296720061   18.64508349618708    6.93908958380117
H         3.32670124217599   18.48079026347051    7.38390057268099
C         1.22768691937848   18.07995714317791    7.50614721513316
H         1.31126012798570   17.47567454227985    8.39608570461007
C        -0.01184910450433   18.28740403349092    6.92075049203231
H        -0.89587454182718   17.84169020010664    7.35120235062230
C        -0.11493634775435   19.05907351137834    5.77904984914586
H        -1.07899092092019   19.20285396312371    5.30844220707452
C        -0.42597379606638   19.58969226991682    2.83744278772504
C        -0.04594028722717   18.30064719102631    2.46799126801597
H         0.95655544605305   17.94970859479177    2.66651787751258
C        -0.95760157050273   17.46365063349603    1.85451273802940
H        -0.65800779163866   16.46891372943463    1.56155121480481
C        -2.25404796123220   17.89552827425440    1.61839390350005
H        -2.96109512631265   17.23876231366546    1.13555120533616
C        -2.64249748623103   19.16530287071100    2.00917438651014
H        -3.65377153747455   19.50024809304053    1.83516016588816
C        -1.73312889570259   20.00920002562023    2.62263129032832
H        -2.03071177821249   21.00500884710941    2.92189376067283
C         3.60923219347846   23.33832559710377    4.04707376941713
C         4.77955950482862   23.89190996096158    3.53616024556527
H         4.75583653702918   24.43575587085235    2.60161848020783
C         5.96498606717190   23.75983835233531    4.23576756512755
H         6.87191985063819   24.19133650054954    3.84008195923050
C         5.99060861190018   23.07881087784843    5.44341403402912
H         6.91813895006850   22.98479467453480    5.98703142625738
C         4.82786463371599   22.52611832522173    5.95520520659527
H         4.84712249952399   21.99279464585246    6.89405294913737
C         3.64019639265911   22.65953685741464    5.25877376184608
H         2.71969067432109   22.22929689162848    5.63820909982188
C         1.97018391238119   25.24532595566089    2.73175097463773
C         1.36926001298966   25.71364138564319    1.56605052516361
H         0.97287401070763   25.02032314029625    0.83996501965064
C         1.26187882986435   27.07572185305626    1.34408649609731
H         0.79730046115723   27.43298110866241    0.43783660863350
C         1.74010231842921   27.97793797152893    2.27992457793960
H         1.65236390133986   29.03869860797288    2.10269793582818
C         2.32955932053565   27.51716966823177    3.44701215334707
H         2.70241669102202   28.21755176064639    4.17945567025913
C         2.44036561854981   26.15869900365840    3.67562912823615
H         2.90427230640525   25.79749632616530    4.58452378923659
C         6.09977839972504   19.13155223852933    0.26919516449347
C         6.08304925406202   19.57881486238549   -1.05054612778478
H         5.15040255024849   19.89339129097280   -1.50003406713997
C         7.24617535960330   19.61075533097219   -1.79534896467058
H         7.22303491842859   19.96908835227514   -2.81392927026484
C         8.43754578212047   19.17265979251703   -1.23993639725115
H         9.34696095618059   19.19737744337664   -1.82082106521345
C         8.45330978560160   18.68561297899800    0.05568879026415
H         9.37500786569075   18.32231215980682    0.48577055194840
C         7.29075230410563   18.65390291602660    0.80540436759150
H         7.31362671935474   18.25553601679750    1.80962643875900
C         5.09662651402988   18.86621091874884    2.89388791561215
C         5.95509594761116   19.76721313860649    3.51583540235850
H         6.33857055268883   20.62164027955991    2.97493896057745
C         6.35276029054571   19.55863628806184    4.82358201793833
H         7.02976075675935   20.25668978814000    5.29359753525522
C         5.90292984538616   18.45078095507425    5.52471783809996
H         6.22747803010762   18.28862917633722    6.54195076348055
C         5.05476238864653   17.54431850932733    4.91178919835671
H         4.71058028571439   16.67212732853712    5.44740840601242
C         4.65478212102879   17.75451373571979    3.60424458345826
H         4.00150993171323   17.04345873701876    3.11616906358653

