71
CSD_code = VARVOZ | q = 0 | S = 0 | Stoichiometry = C27H32BMoN7OS2 | MND = 6
Mo       -1.32852382726252    2.87599358796989    3.51262111305626
S        -1.30576330375470    4.31334541104741    1.60435817076644
S        -2.96801682938062    3.87253876301904    4.96067578682065
O         0.82600523555384    4.35585693869801    4.80769701596016
N        -0.05372572577107    3.74919729063909    4.29581666560532
N        -2.91174314578989    1.81250301303615    2.51652827682201
N        -2.94161754736335    0.46585761023978    2.57143164118392
N        -0.07716242495973    1.47432909800156    2.47338382481851
N        -0.48998995968933    0.20894671065061    2.27675942144868
N        -1.17446202067418    1.21463715817537    4.90459891087992
N        -1.45654769914986   -0.03993416484210    4.51052214492063
C        -4.05263404474932    2.21528304455978    1.95554969220608
C        -4.83928557864665    1.09892395525427    1.66133021378884
C        -4.10209699235318    0.00472389912763    2.06635462902155
C        -4.40541786374147    3.62745507303786    1.64850311425011
C        -4.46991159705615   -1.43298279249141    1.99885116591641
C         1.06104302651713    1.64592020602937    1.79844937913922
C         1.37933607612359    0.45581830857068    1.14330378261079
C         0.37349309108063   -0.43588581771288    1.47366807714323
C         1.80707853501541    2.92679028542222    1.76394663713485
C         0.21814352996169   -1.85169669425266    1.05214874836471
C        -0.92858543574632    1.18867497295188    6.21697189582239
C        -1.06708882142957   -0.12346325179401    6.67340862383562
C        -1.39820678638489   -0.87729639837242    5.56032231853948
C        -0.59160867616725    2.38978253549699    7.01934066403069
C        -1.65769821080401   -2.33711096550617    5.47319001342143
C        -0.45426302779492    5.78842967042946    2.06238557359649
C        -0.77785860493725    6.44034470069032    3.24674069650062
C        -0.12794814167619    7.61237285147637    3.58373251352704
C         0.83377112375434    8.14677695793446    2.74171072881388
C         1.13372584717041    7.51229593672853    1.54770286491901
C         0.48710109873010    6.34094596721108    1.20137977910634
C        -4.47619017979887    2.96092039278140    4.87826244984620
C        -4.50527358519636    1.60405123763314    5.18100183469133
C        -5.69297340916633    0.90238820283349    5.10134710647882
C        -6.86489233801483    1.54872071415454    4.74590398339596
C        -6.84692681064736    2.91120288189046    4.49690366042070
C        -5.66232593101113    3.61861509631549    4.56883325531141
B        -1.71811586005669   -0.33002455676937    3.02748003453518
H        -5.81412495432995    1.09857235107460    1.21882139495689
H         2.22809317643783    0.27118353289164    0.51711549756751
H        -0.94157600359849   -0.47332225033918    7.67760950060027
H        -5.48780840511513    3.73073693937353    1.61866106957919
H        -3.99720763704501    4.31937022944881    2.38574842915657
H        -4.00233833080414    3.90500481531512    0.67334497389006
H        -5.48340801199536   -1.52642622768178    1.61856422079717
H        -3.79558934688598   -1.97706197671339    1.33927354897845
H        -4.41974151979032   -1.88925320350489    2.98564790110337
H         2.80192768614986    2.76576929944325    1.35692295113223
H         1.28151008470134    3.64294494891944    1.13046462071922
H         1.89111372198450    3.35863927275705    2.75931485072688
H         1.01805422740755   -2.11456120392471    0.36564479207677
H         0.26014691643932   -2.51724637704873    1.91265974828355
H        -0.73848299498839   -2.00110613746691    0.55521451357478
H        -0.53261156629239    2.12321479239029    8.07139455557302
H         0.36505637641651    2.80654217134620    6.70787884771016
H        -1.35118610384380    3.16383256530735    6.88740136323744
H        -1.59216753206279   -2.77658060997929    6.46461874191413
H        -2.64840972117925   -2.52912315043828    5.06545498180829
H        -0.92738528613998   -2.81885560634041    4.82536762655466
H        -1.53958007108160    6.02480879879006    3.89858859047552
H        -0.37405757738576    8.10900714241977    4.51034736160330
H         1.34378884045089    9.05923411749949    3.01272611265405
H         1.87389959163859    7.93096782834216    0.88131851024653
H         0.70755648335090    5.84709598962572    0.26605790440065
H        -3.59988117639920    1.10084023737055    5.48908704518010
H        -5.70248632378438   -0.15523450573820    5.32374181533233
H        -7.78971834586163    0.99552264864311    4.67754808169583
H        -7.76172185952375    3.42715063126787    4.24351786273344
H        -5.64257440422552    4.68160047239418    4.37954034549483
H        -1.86193311738428   -1.48341536571458    2.83798583159053

