45
CSD_code = VARZEU | q = 0 | S = 0 | Stoichiometry = C15H16BMnN6O3S3 | MND = 6
Mn        7.07103434935863    4.08205590633422    3.57546473283233
S         8.40059484313676    2.40856293689454    2.12865221479412
O         6.00892900541368    1.79547355029196    5.06528393592042
N         8.53250424777243    4.07067711997879   -0.06099094531530
N        10.37809201518388    3.90080718113398    1.10718742055292
B         7.07122817747739    4.08241554995693   -0.55716504144849
C         9.08420690518401    3.52118367807370    1.03559282837065
C         9.49812827487443    4.82965301859899   -0.66651628480129
H         9.28583490757756    5.38172067230888   -1.55780579817712
C        10.63922366502221    4.73076471043373    0.05249843673228
H        11.60145597403424    5.17565066259254   -0.09295725700222
C        11.29569266032462    3.55946649294076    2.15604526726181
H        12.26470219699151    3.30243397532171    1.72973299315081
H        10.89668750839138    2.70663698441702    2.70533473224646
H        11.41199836154952    4.39903922342642    2.84492267887493
C         6.44328168497521    2.70634895181030    4.51141019910733
H         7.07114852825580    4.08181552266813   -1.74793464806027
N         6.33042243027925    2.82302130639477   -0.06022354102862
C         5.57868463662887    2.62006125914939    1.03632644927657
S         4.95702779575988    3.76862177153514    2.12918040770045
S         7.85582693588360    6.07009188289039    2.12891267847331
C         6.55072099766751    6.10612610358113    1.03556545702979
N         6.35100694944486    5.35409405193207   -0.06146806263920
C         5.21091559093104    5.81100098988635   -0.66691913869871
H         4.83913967844824    5.35152447953744   -1.55850439250761
C         4.72579556727201    6.84828130113749    0.05250798368237
N         5.57491709531101    7.03670194545638    1.10743424236503
C         5.41202909251274    8.00208919454826    2.15628253007108
H         5.15243968665038    8.97040015181636    1.72984589097227
H         6.34961175268457    8.08111241836779    2.70677271227712
H         4.62533423530737    7.68423244946083    2.84408932514529
H         3.85926505691130    7.45902318300432   -0.09269382154923
C         8.57617695292890    4.22637344230483    4.51154987882005
O         9.58187201496956    4.30631750110495    5.06588055999105
C         6.19347856699489    5.31323489528647    4.51169658909667
O         5.62152984294656    6.14475066363857    5.06534370887597
N         5.26032730186452    1.30976354561584    1.10792977526967
C         5.84846525538626    0.66856419216260    0.05325712676435
C         6.50478195769190    1.60725052229792   -0.66574687912067
H         7.08898011973830    1.51501392745865   -1.55706703259317
H         5.75256590447810   -0.38718516740646   -0.09218410030105
C         4.50532714571255    0.68599648688099    2.15648777204522
H         3.79642962729819   -0.02270387614549    1.72977489702679
H         3.96819502586122    1.45845688982991    2.70704209645052
H         5.17368947692004    0.16327835108231    2.84427142207002

