72
CSD_code = VASGEB | q = 0 | S = 0 | Stoichiometry = C28H40ClO2Ta | MND = 5
Ta        1.89048962919672    2.94911334508267    0.45273462601785
Cl        1.84602320368451    5.29005186040331    0.43108588595692
O         2.82407410071678    2.88526273235609   -1.06856519357665
O         0.97374011538646    2.87455882735455    1.98503427142757
C         2.97507142930139    2.47825908883704   -2.32325296957833
C         1.85886836496555    1.86179144788187   -2.93515150741635
C         2.01088032245656    1.36304238207100   -4.21930249494983
C         3.21575689020648    1.47168087010939   -4.88741795144531
C         4.28340884156150    2.12040239503095   -4.29844499759889
C         4.19070722083634    2.64595709320659   -3.01782044514300
C         0.87595071494069    2.52326930964205    3.26226746628962
C         2.03456520982732    1.98864382025812    3.87283374138788
C         1.94333531099122    1.56570568991641    5.18966967888611
C         0.75699036337566    1.66689951743491    5.89067016189536
C        -0.35684721362260    2.22732836970525    5.29689290052527
C        -0.32666915179492    2.67383614079331    3.98376306053292
C         0.50933384596839    1.84793806124639   -2.22003700118032
C         0.64066438747722    1.46768404930722   -0.74145275217800
C        -0.09490310514308    3.26120739958953   -2.34225076102792
C        -0.47206949782581    0.85536122953571   -2.86681230812015
C         5.34176494491582    3.41750885768494   -2.38066547149610
C         6.55272713751434    3.53642936381776   -3.31301825091987
C         4.86497773366225    4.83987940687883   -2.05002911676597
C         5.80711902591509    2.71026335002767   -1.10036987653690
C         3.36340561729058    1.97477019477624    3.11950398206865
C         3.19673524979178    1.53291665832766    1.66231816817546
C         3.94148798927218    3.40313051817146    3.16904624434677
C         4.38357387366170    1.02733612341532    3.77447637954621
C        -1.53619223948915    3.33981473336635    3.33602830571108
C        -1.15274263361901    4.76256354619617    2.90245254720676
C        -2.72708288330102    3.45096247086861    4.29492176914585
C        -1.99367573926062    2.52399983592167    2.11915331170282
H         1.18772395046373    0.88108963484551   -4.71944627526395
H         3.31657150115843    1.06526703702305   -5.88267086904552
H         5.19787818588025    2.21314845355450   -4.85909717159963
H         2.80178080631136    1.15053795314544    5.69035227155023
H         0.70583667037268    1.32229269146851    6.91267330770735
H        -1.25762320771251    2.31428480911941    5.88011148417753
H        -0.36038192606911    1.30924498250883   -0.33430013919769
H         1.17767881240675    0.51693974459085   -0.66338847100307
H        -1.01800982024826    3.32733404823811   -1.76716110150314
H        -0.32008207862161    3.47957281243379   -3.38476270091760
H         0.59862527275193    4.02284701868914   -1.98311078644242
H        -1.39485025300577    0.83012417982637   -2.29075523688299
H        -0.05165132596361   -0.14758737960178   -2.88433168869568
H        -0.72664413597025    1.15188849999179   -3.88106077974371
H         7.32782629121707    4.11758037145591   -2.81739841124562
H         6.29105437962531    4.04849272475475   -4.23575261422953
H         6.96680998040616    2.55875006898959   -3.54888493471772
H         4.03347056730741    4.82979984547808   -1.34897870729506
H         4.54185675142288    5.34588547952771   -2.95782446143618
H         5.67704288469931    5.41203978218721   -1.60598401569162
H         5.02724400960855    2.73400131316440   -0.34382537250866
H         6.68811557171620    3.20874337101604   -0.70044974780483
H         6.06165480938056    1.67328200459912   -1.31296800943977
H         4.18687206876149    1.37239109933468    1.23060338331794
H         2.67173024370294    0.57260980876842    1.63808306270587
H         3.22394945641120    4.13632047648237    2.79798022422711
H         4.84858760540918    3.46339007856872    2.56856182034481
H         4.18833774474057    3.66814516836799    4.19560836246005
H         3.98078373695490    0.01995130133070    3.85081927133807
H         4.66922388411487    1.37170973224483    4.76491906770280
H         5.28583382930455    0.99088891863762    3.16743499592274
H        -0.83392967995843    5.34268418696248    3.76635760566273
H        -2.00940114514532    5.25861407429536    2.45070955705826
H        -0.34242962790299    4.75545051234230    2.17711917092028
H        -3.07468910695205    2.46930213919379    4.60867775389311
H        -3.54901559216638    3.94987817644242    3.78537183459551
H        -2.47269442630855    4.03982761665473    5.17276247919484
H        -2.89685599721954    2.96070092466293    1.69721501961737
H        -2.20856456308430    1.49789730004215    2.41269930931275
H        -1.22513518495746    2.51551034980906    1.35083010927165

