83
CSD_code = VASJOR | q = 0 | S = 0 | Stoichiometry = C31H42BN6OSY | MND = 10
Y         5.08542748874594    2.86610919172304   18.80232250444648
B         5.40302162769241    0.87796887416135   21.58510988178143
H         5.50960427083538    0.18189144931243   22.52930849784352
O         5.51833331963253    5.58159494322321   18.68160230236477
S         6.82646223878832    2.93296975448177   16.82273868268240
N         6.67802602628273    1.73755148192786   21.43847244845546
N         6.79634725172756    2.74061724342868   20.53817910687918
N         5.18355848879696    0.01435861772460   20.32877897189317
N         5.04246758943699    0.55098021447267   19.09303097438957
N         4.20557937911573    1.83360495245548   21.78570380143492
N         4.02704309285884    2.94965187347110   21.04126625309389
C         7.77386940537151    1.69376567507924   22.22030006626054
C         8.62409135400498    2.70683521222471   21.81616924363879
H         9.58434059915232    2.95022863310478   22.22429119483124
C         7.96617174435642    3.34072908103678   20.76022360373998
C         8.00121548103247    0.70376128497993   23.30573429880589
H         7.26108669688647    0.81740787238205   24.09584175692105
H         8.99101856215412    0.85463710053330   23.72886116507915
H         7.93338290302697   -0.31179540578008   22.92096171632837
C         8.43162133738688    4.52059910229373   19.97981743838491
H         7.82078048419097    4.64635278940955   19.08550199229117
H         9.47629637804426    4.39987206984135   19.69453593990875
H         8.35866775905218    5.42018190483252   20.59241233013629
C         5.07996401728596   -1.32598105455282   20.25598621017502
C         4.86573249305566   -1.66249721424412   18.93310392809814
H         4.74165849372250   -2.64532867239171   18.52660025121584
C         4.85375239894149   -0.45401550343510   18.23541819780631
C         5.19169798592497   -2.24654104586467   21.41837180227680
H         6.15323501775038   -2.12986507223948   21.91418852647022
H         5.09723201009865   -3.27244672303675   21.07282849740647
H         4.40973797944666   -2.04938112634051   22.14942335048606
C         4.66246519774376   -0.24794417725022   16.77711862808190
H         5.17963257074044   -1.02723882213954   16.22193867468692
H         5.04181758837236    0.73046343520025   16.47269974977752
H         3.60278312641300   -0.29343810776235   16.52987487690130
C         3.29004781570724    1.78765129681638   22.77220253834424
C         2.50132254889843    2.91805512247017   22.66959619740871
H         1.67970229217105    3.19623846590021   23.29802237241464
C         3.00435265773309    3.62009047335077   21.57336178499373
C         3.17434241304536    0.68719445570380   23.76474840189314
H         2.32008034641979    0.87319924115229   24.41032337921550
H         4.07042620085359    0.61968325942398   24.37912362680903
H         3.03446812490822   -0.26768966779602   23.26174184637305
C         2.52881290878902    4.92850758024347   21.04710827563770
H         2.31148099365165    5.60323311186000   21.87378387027155
H         1.61452687249419    4.79831447330813   20.46796814983824
H         3.29031002270424    5.37103908522228   20.40956173059253
C         3.08062786266171    3.65104633056333   17.77949759638652
H         2.96369105284256    4.67110844657244   18.14500466866964
C         3.29781226480810    3.39422836180409   16.37785029613895
H         3.82685310119214    4.04978811205022   15.70160103076483
C         2.66928515450849    2.21781310311997   16.04376713819009
H         2.66994693110607    1.75498008985475   15.07147367176093
C         2.00634880971923    1.71718295913500   17.18553438368394
H         1.41608495951647    0.81558815919259   17.22087496714411
C         2.21959234703723    2.58120164976057   18.23628673973001
H         1.74524808643724    2.52601351066367   19.20713297231492
C         8.39596249730977    2.07993329675248   17.28213516817566
H         9.03130406439965    2.20448799620478   16.40254211108897
H         8.83771587419133    2.61092757872266   18.12451764090823
C         8.21476076440637    0.63371517040235   17.59562272729484
C         8.34774232696786    0.16332674493072   18.89727909130551
H         8.59273299877058    0.85211581133430   19.69279876075232
C         8.21424569581750   -1.18479826351716   19.17600607861134
H         8.32810830916223   -1.53622108096002   20.19178346149531
C         7.95107030991182   -2.08328085521915   18.15727991973885
H         7.85523564195379   -3.13702907038162   18.37472105035674
C         7.82044777698573   -1.62487030951565   16.85716277565572
H         7.62602554655396   -2.32387018709321   16.05586421967251
C         7.94776744647828   -0.27698417803745   16.57884239938177
H         7.84402942550025    0.08468292956898   15.56584846805280
C         5.68327123033897    6.16647577970612   17.38932428226129
H         4.74809291675883    6.65928965503618   17.08905596843303
H         5.92582075420802    5.36593364254884   16.68831152563040
C         6.80775145147625    7.19107032939891   17.55694807014775
H         6.70666193171232    8.01540066917750   16.85554358346643
H         7.77150054268749    6.71194921945789   17.39218209005968
C         6.66261064672148    7.63813600095110   19.02060151960906
H         7.60883993437360    7.55594586227356   19.55127167006203
H         6.31804359800738    8.66756340204892   19.09849110350797
C         5.61269416596671    6.66911905766406   19.59440155821941
H         5.87596530590524    6.26350275369830   20.57264165097259
H         4.63871271836236    7.17605059221960   19.66354060142916

