79
CSD_code = VASJAA | q = 1 | S = 0 | Stoichiometry = C36H40OPRu(1+) | MND = 9
Ru       -0.06784587446945    4.14258418703153   12.88196922684582
P         0.99745304294932    4.87069935820155   11.01892454420101
O        -0.76628245136527    2.81221970782763   11.43505641018654
C         1.54298220378849    2.89226742557628   12.78849083721523
C         2.00402260812752    2.47310199299885   11.60562319945621
C         1.31666360583086    3.12333347547803   10.40715128131089
C        -0.05863401004166    2.53366097642601   10.45944329057413
C        -0.55437869979535    1.58159787957214    9.39117724843841
C        -1.98239043135172    1.14475320716580    9.72507944808265
C         0.37414581202047    0.35902121152193    9.36740470039087
C        -0.53482031249877    2.28816434854069    8.02898984732581
C        -3.02166629756270    2.78912254063665   14.04463056892858
C         1.08701698066131    6.93342242290419   14.59326602166076
C         0.76480020155145    7.68350113881525   15.89083984354865
C         2.52521202455083    6.41230794260789   14.60511740188506
C        -1.93735492583772    3.81649354890003   14.15354919927638
C        -2.09740564527285    5.08283966676898   13.53377380509441
C        -1.10532210797255    6.05736851403251   13.64014172495415
C         0.07834891438169    5.82334124932461   14.40333753328700
C         0.18843778594079    4.59599391318184   15.09169082125261
C        -0.80287906194444    3.59789546616637   14.96242446903381
C         0.02347392819832    5.56112479700872    9.65136863454878
C         0.63479010241730    5.96788781877329    8.46764097310477
C        -0.14287197584323    6.40408920579665    7.41093464644613
C        -1.52452339501469    6.43471547447376    7.52697866085961
C        -2.13539989690096    6.02464735874837    8.70147560886488
C        -1.36273538671456    5.58625589747070    9.76193520953665
C         2.55303304269139    5.78400281289152   10.97611468947043
C         2.46669934011690    7.17356771699121   10.88183873319004
C         3.61380947302284    7.94245505696623   10.92040671596770
C         4.85111494888061    7.33221172110546   11.06033895360986
C         4.93824931279309    5.95366064280804   11.17137801101703
C         3.79411767388955    5.17595976776151   11.14042762473971
C         3.00735820592500    1.42460639621331   11.37549446556337
C         3.07682260493549    0.33381236506751   12.24264332749435
C         4.01637003781830   -0.66098751954727   12.05266884430248
C         4.90562886879448   -0.58719206139313   10.99324791237848
C         4.84753748039937    0.48998438422967   10.12555008334993
C         3.90632883903821    1.48584790874627   10.31074102981677
H         1.97967277409321    2.50901035979454   13.70855546264765
H         1.83099668359473    3.02988128648215    9.45151474605036
H        -2.34005922670955    0.44248766234981    8.97794838174817
H        -2.64870538983538    2.00399400330229    9.74067325020286
H        -2.01454630748324    0.66274151711482   10.69894126418566
H         0.00573723267080   -0.35502115479679    8.63584256033446
H         0.39633492106660   -0.12438060593752   10.34104013018975
H         1.39049066840727    0.63311030177788    9.09884921763183
H        -1.13870931707341    3.19247520147746    8.05446200208543
H        -0.94659635520444    1.62040082391847    7.27721739652601
H         0.47443038842532    2.55444025773774    7.72812532641520
H        -3.36258914334062    2.69190106818148   13.01426619179405
H        -3.87570000821426    3.09117311862942   14.65293504718468
H        -2.67920041591390    1.81687356794594   14.39201699999386
H         0.98442660445542    7.63055621633860   13.75278657934926
H         1.46439642773038    8.50342973795334   16.02665562266612
H         0.84446097538724    7.01724891917535   16.74694444176189
H        -0.24342890950289    8.09102124925505   15.86342824509279
H         2.68312398085324    5.71464919740237   13.78144959424244
H         2.75549957121715    5.90968050931383   15.54070025690067
H         3.21852221250208    7.24112065347102   14.49231605965445
H        -3.02089421043967    5.30081631522587   13.00903715180065
H        -1.25860266420590    7.03600426991899   13.19572538353238
H         1.02007424142587    4.43241631672540   15.76752200080621
H        -0.72499063457560    2.68397854135057   15.54145507925210
H         1.71237380278866    5.94542135983694    8.38412612887268
H         0.32814439656755    6.72126609526853    6.49324004031818
H        -2.12603739072422    6.77819536585855    6.69970941359791
H        -3.21140341540578    6.04713586794627    8.78763515213845
H        -1.82489953540656    5.25436330437661   10.68447879940181
H         1.49617964811088    7.63927723267620   10.76813810922146
H         3.54555961322368    9.01673862050225   10.84083460854090
H         5.74723119599181    7.93273278649526   11.08622922806613
H         5.90149551592037    5.48067409611259   11.28643986775844
H         3.86204992653005    4.10471821184003   11.24981028947508
H         2.37538211518930    0.26415825655782   13.06034037277050
H         4.05296944786075   -1.49937184021181   12.73153267019989
H         5.63878318920361   -1.36438760949130   10.84413572785715
H         5.53925741311800    0.55707955346395    9.29938005160609
H         3.89116341157443    2.32424944686142    9.62829560091470

