60
CSD_code = VASMOR | q = 0 | S = 0 | Stoichiometry = C22H34Cl2SiZr | MND = 12
Zr        0.00014095348479    6.93771727088996   10.12483913056315
Cl        1.31278060451997    5.31309999840581   11.18735146409244
Si       -0.00002367188159   10.29492958780389   10.12435507944934
C         0.66007053467895    8.97679066225165    8.94145575408175
C         1.85431503637016    8.23851721478514    9.22396963798891
C         1.88626597566266    7.08328515256207    8.40363506861937
C         0.68234716637553    7.07706957124479    7.65689974248215
C        -0.08285425659133    8.20964591858936    8.00438021475290
C         1.39465383890484   11.43088473434374   10.76076060788665
C         3.05211090186782    6.14881526281585    8.15360372534970
C         4.07270199653095    6.21711277976131    9.29453444015663
C         2.54228653073128    4.70831443332021    8.00352239827718
C         3.73451938265833    6.58547013745428    6.84590403332102
C        -1.43384195896128    8.52595867454904    7.42409715933035
H         1.58024384471774   12.21911781388409   10.03882115705250
H         1.11265330004406   11.90627433548973   11.69426854948604
H         2.33098438647455   10.90771509296938   10.91820262426334
H         0.41757279900916    6.37217171374209    6.87918082227354
H         2.68005444948835    8.61360424346420    9.81706019726420
H        -1.64445134641442    9.59099222261697    7.48424252332446
H        -1.46862210909149    8.22688469920977    6.37614794359385
H        -2.22425097010243    7.97421899789234    7.94812756234900
H         3.60387148495461    5.96549033575845   10.24419392904070
H         4.51151164711925    7.21044291426060    9.36291776050332
H         4.87741030281727    5.50844799303115    9.11175646196018
H         1.92492710406566    4.60337852974740    7.11403179211844
H         3.38161872468792    4.02199079666369    7.91320248721914
H         1.95026813472066    4.41718584323100    8.87215766979206
H         3.03554552028571    6.53776722838239    6.01448772753879
H         4.57879588325229    5.93552505825952    6.62733226094659
H         4.09538238045036    7.60826347361345    6.92976467816946
Cl       -1.30823087360688    5.31443051356067    9.05665584836705
C        -0.66027305370794    8.97708455252888   11.30748670266921
C        -1.85441824454068    8.23872002127990   11.02480267936748
C        -1.88649198906543    7.08350960073968   11.84514930617716
C        -0.68283024649630    7.07752040332728   12.59227933473359
C         0.08253635003688    8.20996015137890   12.24469212405577
C        -1.39462545158034   11.43083204074758    9.48765287590403
H        -2.68002652442407    8.61367679272965   10.43147841225705
C        -3.05226917683560    6.14885209191457   12.09479063627379
H        -0.41796930095273    6.37241237573645   13.36977027633155
C         1.43338472633760    8.52602239217062   12.82476933646909
H        -1.58055318672428   12.21892378480819   10.20966130925910
H        -1.11238868785085   11.90641856028358    8.55432124821553
H        -2.33084720023189   10.90759448486548    9.32980152676667
C        -4.07283637390879    6.21709502424815   10.95381271787943
C        -2.54245872626532    4.70836800110293   12.24532510623573
C        -3.73487007939896    6.58561713613806   13.40232810662883
H         1.64488968149461    9.59035972239721   12.76449896833651
H         1.46879900794426    8.22774934461014   13.87244507500713
H         2.22384471720439    7.97430480105485   12.30154875244800
H        -3.60408867257305    5.96563617734768   10.00415019202845
H        -4.51171294920435    7.21038266641663   10.88540662684462
H        -4.87745772154865    5.50830924670350   11.13641744971647
H        -1.92538291363538    4.60357508347321   13.13502463836069
H        -3.38176835337467    4.02198519187184   12.33538303764664
H        -1.95007711223693    4.41698712943839   11.37710056147692
H        -3.03598592735205    6.53800407182146   14.23383468724905
H        -4.57916876522315    5.93568003737396   13.62083065854235
H        -4.09571152310532    7.60840590894567   13.31827720149587

