21
CSD_code = VASMAE | q = 0 | S = 0 | Stoichiometry = C9H6FeO5 | MND = 7
Fe        1.21501087074705    5.05687024528104    7.46993462071017
O        -0.97965643153579    6.66441288773721    8.70630258535194
O        -1.71962890678108    5.31345896840149   10.31172407918858
O         2.94689474964724    2.71691674800456    7.51962964290732
C        -0.83140473462504    5.63024363141420    9.56956084936214
O         2.54023273133129    5.67622853830424    4.96233301301901
O        -1.26370245360100    3.90773476744153    6.37593709079772
C         2.02719351827919    5.45993022264935    5.96265372894568
C         1.61436065465865    5.90095029245399    9.40859843594261
C         2.29017755384346    3.65239388166749    7.53570235645515
C        -0.31655974126227    4.36441879288300    6.81257906899631
C         1.40670819003538    6.96943976020359    8.52613015438605
C         0.12244290287041    6.95986667492352    7.89447814755666
C         0.50656254334734    4.99062572181369    9.50693952450018
C        -0.24769952813967    8.00225769709943    6.87348996581155
H         2.15311054141710    7.72366017213837    8.31504671003252
H         0.59799113078664    4.15181637100544   10.19081590541477
H         2.51274663212220    5.79542577765218   10.00383970831258
H        -1.10405073957057    7.66989470220226    6.29340475298456
H        -0.52538759999466    8.92803921737891    7.37930157808932
H         0.58665811642399    8.19331492934437    6.20459808123522

