21
CSD_code = VASMEI | q = 0 | S = 0 | Stoichiometry = C9H5BrFeO5 | MND = 7
Br        4.66485265285945    7.05354975237679    5.55905435616075
C         3.81958418590449    5.12618185634058    9.08027340326895
C         4.79313416092278    5.39255759846020    7.97926084572135
C         4.70100092755864    6.71301157569260    7.43463533543023
C         4.60454797946612    7.74170948724353    8.37627119927436
C         4.56888340478076    7.24581282459969    9.73164262644169
C         4.45875649873418    8.21666546396437   10.87860787952918
C         7.66726683143688    6.14315567432626    7.64941168559723
C         7.47400045068827    7.89424165496983    9.30615693122116
C         6.68631815623330    5.46097967705915   10.18024042396960
Fe        6.39632045317327    6.59636751177243    8.80739450177207
H         4.53665651609106    8.78919622674009    8.11516002521057
H         4.88315075628726    4.55880529206768    7.28796817818538
H         4.69868535041161    7.71617936378642   11.81230853644468
H         5.13633084185123    9.05322476497617   10.73529219474808
H         3.43561063924735    8.58715660267392   10.95014049584637
O         3.72408020307983    6.14232684233288    9.96223469736430
O         3.16235258982693    4.13071451224923    9.18876014056852
O         6.88602701209265    4.74973612912041   11.04456646268522
O         8.52283764329170    5.82914863404010    6.96442096199081
O         8.20460274606228    8.70767855520751    9.63659911856949

