98
CSD_code = VASPAJ | q = 0 | S = 0 | Stoichiometry = C37H51CuN6Si3 | MND = 4
Cu        8.24181708897509    4.75837893566031   13.52905448052181
Si        9.73142203689770    3.67477096101837   16.34825094628637
N         9.87463301912445    2.73532531675126   14.77887381400965
N         9.56886458194466    2.22074611413257   12.67027330088242
C         8.24182709197876    4.75838314724877   16.38461446521415
C         9.69358956893504    2.31819633278098   17.69745522066214
H         9.35899422539579    1.35964596213974   17.31689488140449
H         8.99970438880643    2.62057324322512   18.47346358510656
H        10.65959175976938    2.17573506982508   18.17194813627912
C        11.43486099710743    4.53510409889582   16.36238097978252
H        11.45893158392269    5.33404825732346   15.62862302432362
H        12.24667187627427    3.85023114573532   16.13052997909639
H        11.63647449763385    4.97414433983818   17.33192137459111
C         9.26954426820271    3.12118998407197   13.64030207163993
C        10.59411246394101    1.58926367459286   14.53305248439958
C        11.43039619100496    0.83306675102003   15.34075159924186
H        11.61497435286588    1.11033894264916   16.36371145570779
C        12.02928058704327   -0.28142736377708   14.78631229350354
H        12.68432618026535   -0.88911693773529   15.39283182842389
C        11.81045374929594   -0.63732857728838   13.45873643246882
H        12.29282610729433   -1.51736097531469   13.05979207275473
C        10.99731733197904    0.11888199176391   12.63607885915729
H        10.85385135194355   -0.16841849294060   11.60634459406719
C        10.39402304187444    1.24254128063181   13.18178051519739
C         9.05712655916979    2.32360548953756   11.32134402972601
H         8.43725283819155    3.22906651355031   11.32362999172021
C        10.19104949028476    2.51112250793892   10.31398205024622
H        10.81323456479504    3.35181599762026   10.61138896031447
H         9.77856381370496    2.71375872988201    9.32899820235561
H        10.81561158299276    1.62481162119115   10.25162866423854
C         8.16568653083441    1.13023431846480   10.97981708733400
H         7.37084437975301    1.04154768452860   11.71713322171105
H         8.73076114260646    0.20277651119965   10.97008656824332
H         7.71871645438033    1.27285623023455    9.99915083013699
Si        8.43546367858204    6.59021806051610   16.34827342041251
N         9.17744801180548    7.18395723384554   14.77889956622870
N         9.77596895021147    7.17643380057718   12.67029961842608
C         9.62918139570519    7.23575018348160   17.69749595295082
H        10.62661568793946    7.42525950078413   17.31695377925440
H         9.71423974257701    6.48363503434736   18.47350323228508
H         9.26953776952237    8.14356267797597   18.17197965183907
C         6.83867497631798    7.63527810965845   16.36237535338028
H         6.13473533682384    7.25664994133101   15.62861683612166
H         7.02589488726784    8.68075824742022   16.13051013553482
H         6.35763777598919    7.59038177571140   17.33191126014595
C         9.14582633609850    6.46699644421535   13.64033229336331
C         9.81022158305193    8.38007640816463   14.53307124378574
C        10.04695158282378    9.48242559317708   15.34076288734238
H         9.71453925746390    9.50363965436630   16.36372328280040
C        10.71267030087733   10.55832871076809   14.78631427093728
H        10.91139483076781   11.42947397110759   15.39282208654077
C        11.13030630365929   10.54676406769257   13.45873954870939
H        11.65121968898188   11.40454034845311   13.05978353739749
C        10.88199413025890    9.46445185752236   12.63609034790477
H        11.20253411686618    9.48385564491178   11.60635520614616
C        10.21053654211884    8.38014937957702   13.18179908712884
C         9.94274381614891    6.68181460988882   11.32137257026200
H         9.46852815869043    5.69225644532312   11.32367106945554
C         9.21339345077433    7.57006384098114   10.31400691268058
H         8.17424297603377    7.68854046298964   10.61142460687822
H         9.24413542476179    7.11151936886573    9.32902492327244
H         9.66867148573131    8.55410981847979   10.25164227777135
C        11.42195024031848    6.50649311995155   10.97983423211506
H        11.89617168961764    5.86247416070702   11.71714437318475
H        11.94262723835085    7.45958507353605   10.97010699467612
H        11.52191295831751    6.04809677592916    9.99916649634016
Si        6.55859234815039    4.01016550033418   16.34824852945658
N         5.67339985850669    4.35587893028772   14.77887668886274
N         5.38062970724531    4.87797828846456   12.67027956210201
C         5.40269786243079    4.72123652359205   17.69745755582139
H         4.73986019704337    5.49027837640500   17.31690536503769
H         6.01151178358413    5.17097287934135   18.47345943616756
H         4.79632924489308    3.95588703764582   18.17196008783525
C         6.45193901428776    2.10478011989454   16.36234071310147
H         7.13181970188149    1.68447251359347   15.62858386281723
H         5.45291515099111    1.74418215994365   16.13047139242626
H         6.73133614681295    1.71064741003963   17.33188138664915
C         6.31010593633560    4.68695242130485   13.64029587637051
C         4.32113864759387    4.30584174106322   14.53306920320944
C         3.24811607481655    3.95970806694659   15.34077899129593
H         3.39596025017042    3.66121583087063   16.36373533072027
C         1.98348923495908    3.99831368669917   14.78635109929837
H         1.12969436309252    3.73489366567181   15.39288323615007
C         1.78467287561682    4.36578425253385   13.45877954326340
H         0.78135154676407    4.38807606911172   13.05984853376447
C         2.84613253809927    4.69187393659118   12.63611386644978
H         2.66904732128425    4.95976944248002   11.60638113531583
C         4.12090273934859    4.65249168752198   13.18180056452554
C         5.72556096573178    5.26973649956158   11.32134838120019
H         6.81965041948437    5.35381322928418   11.32361444653927
C         5.32097034686518    4.19399024435441   10.31397818305608
H         5.73793704257967    3.23480684511563   10.61136322911972
H         5.70267980645768    4.44990743740325    9.32898773213862
H         4.24111920140599    4.09627202931248   10.25165276974908
C         5.13781271702640    6.63844649682518   10.97984237516017
H         5.45844129122404    7.37112892750166   11.71716868982569
H         4.05207334116834    6.61281492182748   10.97012036844455
H         5.48480630050498    6.95423369982514    9.99917680810594

