60
CSD_code = VASVAN | q = 0 | S = 0 | Stoichiometry = C28H29ClORu | MND = 8
Ru        8.45859771104603    5.77166028715554    4.43343676377273
Cl        9.11253688054171    7.87683250352356    3.94021068110395
C         6.50706008015922    6.11482703360688    4.03790283762219
C         5.75240094975829    6.44629085409426    5.12470161337634
C         6.45643844482521    6.51481407377910    6.35407711422118
C         7.79112231612986    6.24804544323805    6.28172355147764
C         4.34546797860481    6.90230049165285    5.37780899369060
H         4.00512719037300    7.66865729032628    4.67576744171867
H         3.63864344141215    6.05699133034744    5.34768016712475
C         5.50311880549207    7.01088419159097    7.40152354647435
H         5.21018779300428    6.20385973904042    8.09244225965012
H         5.89800228102202    7.84632906488865    7.98619155433474
C         5.99913557544759    5.98276838833294    2.68816935951728
C         6.77855399387969    6.42473345885657    1.61139256685545
H         7.73066634789609    6.90139923891983    1.81309998541565
C         6.32788921985362    6.29808448064325    0.31234177035939
H         6.93686881475704    6.65417118635555   -0.50670505527947
C         5.09648884037989    5.71544411867673    0.05574246449295
H         4.74713495196443    5.60991022903517   -0.96078871163465
C         4.31237836959584    5.27371693602500    1.11060160308887
H         3.35069101337244    4.82224597995334    0.91306051407929
C         4.75282123675953    5.40808871786009    2.41209082319281
H         4.14259046048257    5.05499179952666    3.22970115757729
C         8.68709331667489    6.26805534312379    7.41985584734304
C         9.95121706117543    6.85780634935083    7.29952161825825
H        10.22902730668619    7.31435044328004    6.35704374008433
C        10.81845764058146    6.89286247161333    8.37362723306341
H        11.78493586168249    7.36575674535777    8.27101842791498
C        10.45438436739955    6.32123024436973    9.58271176412753
H        11.13663850809293    6.34087816461294   10.41968528233945
C         9.20853884769908    5.72722465797226    9.71532959855400
H         8.92273896934154    5.28095107209799   10.65717252311227
C         8.32978000172744    5.70558198605374    8.65068448425763
H         7.36140552194081    5.23879925622768    8.75428520318181
C         8.52740348070042    3.59615099307813    4.74073847317806
C         9.81556117998827    4.11245471189550    5.12690941198008
C        10.43725707224419    4.65462669994579    3.95923640069722
C         9.57234359695925    4.44613624844414    2.85246205820029
C         8.39227980269774    3.79255851014944    3.32352489453703
C         7.66735596312798    2.69327375715511    5.57654320921421
H         6.62832191202985    2.74695216599675    5.25872965454630
H         7.71817226981654    2.97507812744131    6.62605630116310
H         8.00721353990151    1.65985497046046    5.47861968206332
C        10.51546037609668    3.79195562379132    6.41103150476595
H        11.03028925300567    2.83441527127881    6.29996965937985
H         9.81369191084007    3.70585832319277    7.23663411956041
H        11.25339507354444    4.54720799525573    6.67059100073265
C        11.83108265354892    5.19260861143052    3.86546887395563
H        12.21499992930189    5.46070264345106    4.84711964642031
H        11.86801736908414    6.07575328296464    3.22828600670805
H        12.49001786583294    4.43660534617959    3.43269058778377
C         9.93055918479136    4.71826282679890    1.42550899478562
H        10.62733057516725    3.95397563836863    1.07367476738559
H        10.41770531173769    5.68689893540668    1.31958429234054
H         9.05065623431536    4.69963287864510    0.78687660711214
C         7.36159224648131    3.11847398973745    2.47152140245461
H         7.22998797151812    3.62323187479735    1.51767769227099
H         6.39783385075546    3.08396364711753    2.97431529361211
H         7.68115553539869    2.09219835667295    2.27622860131352
O         4.36047574128440    7.46332499887190    6.68469213944247

