60
CSD_code = VASVOB | q = 0 | S = 0 | Stoichiometry = C21H32N2O4Pd | MND = 4
Pd        3.44167895292011   -1.57096548717514    7.68046122391985
N         4.18077295923786   -3.22845470930355    8.41547892751262
N         7.92429274804390   -4.46772708044016   11.25245686782675
O         4.53184141396130   -0.77813387043023    9.15178247326507
O         2.72953981529141    0.22708339597781    7.07548377006359
O         2.56537877638158   -2.45400904117206    6.07546365504655
O         8.16908922483458   -1.99318703597825   11.86046418715722
C         1.58831733938722    1.88073107016295    5.83191984581065
H         1.97377189488904    2.50695318089195    6.63182411245467
H         0.50299698378819    1.94700765932859    5.80791877011140
H         1.97316962020596    2.23424917230438    4.87796486083768
C         2.01605502026813    0.44733886743386    6.06317285067732
C         1.58559118661652   -0.50463541372049    5.12899870211547
H         0.98708780567221   -0.15775881300365    4.30106193795782
C         1.88974988789326   -1.86160022921633    5.18115485159228
C         1.35146003801724   -2.73386225438067    4.06512299083205
H         1.68497286977814   -3.75872205293103    4.20526301607317
H         1.70259133049126   -2.36907569248035    3.10299868950184
H         0.26403650767425   -2.70541104861012    4.06407349163569
C         3.56704435060612   -4.50914466166703    8.18456320557900
H         4.26684008716895   -5.33361850339200    8.35481731490392
H         3.24048383361338   -4.53680254908727    7.13992973621961
C         2.32209680601481   -4.71287142572965    9.09350998833903
C         1.29995424797058   -3.59211670548727    8.86573602014257
H         1.01367534849652   -3.54887838347611    7.81425736894751
H         1.70881804817321   -2.61012081965757    9.17137023796873
H         0.40657544375564   -3.78346219831288    9.45693324684274
C         1.68824420390955   -6.05615682666024    8.72271667523859
H         1.37075874050356   -6.05632435618604    7.68290819150742
H         0.81875209082867   -6.24751921860615    9.34674877366465
H         2.39469369770751   -6.87074553012548    8.86600673155826
C         2.73730069169015   -4.72735612294226   10.56519751411720
H         3.43876377988078   -5.53365319615851   10.76420449610628
H         1.86509949527998   -4.87270850716340   11.19828661293845
H         3.20634076542630   -3.78565749010660   10.84254438490865
C         5.18059095572485   -3.04885223766226    9.25165947078621
C         5.38177215375361   -1.62204359443056    9.61719303994423
C         6.38237127689507   -1.27361275001513   10.49865498845496
H         6.50324860886204   -0.23857770006431   10.77755452790277
C         7.25047236897098   -2.22753373129087   11.06625050990796
C         7.02010220077907   -3.66933132812680   10.68294329599595
C         6.00119640850971   -4.03245965256120    9.84271531580676
H         5.85583638321126   -5.07297628128375    9.59747066180038
C         8.01837575339201   -5.89545601537044   11.24439599354882
H         9.07509438781423   -6.16674533333010   11.14974824237215
H         7.48897508918264   -6.28475689854998   10.37197557437855
C         7.45114001128790   -6.55470874393187   12.52525013361945
C         8.14556039083632   -5.97261173044809   13.75778904014941
H         9.22548468813508   -6.07723451961423   13.67713266693368
H         7.81915374854336   -6.49691079798784   14.65283586586638
H         7.90534010302873   -4.91929343964418   13.87827312801646
C         7.72019008245001   -8.05873498215183   12.44558698109426
H         8.78896269408227   -8.25773388862445   12.41332849361053
H         7.26466598387970   -8.48691450748708   11.55516799694728
H         7.30568906169832   -8.56140707210918   13.31589274323103
C         5.94577923755106   -6.30387102065023   12.61400970817518
H         5.43039718883272   -6.77265623442181   11.77823876818659
H         5.72976920921524   -5.23833611244054   12.60118952912858
H         5.54784817436820   -6.72211217178370   13.53544620351891
H         8.55644783261623   -3.93881337850115   11.85650139724530

