46
CSD_code = VASVIW | q = 0 | S = 0 | Stoichiometry = C21H20Cl2NPPt | MND = 4
Pt       -1.34317120597032    5.01144133713001    8.00002880146983
Cl        0.00566421770935    3.88932457422535    6.59430785403445
Cl       -2.64003549197926    5.76947423439223    6.26508113881995
P         0.07021550636713    4.15011649746958    9.58482003889789
C         0.29041958067205    2.36389196201739    9.37615973682801
C         1.51431851086740    1.71234736730400    9.43266349490869
H         2.42053383863398    2.27148537674564    9.61536911613393
C         1.56863801984979    0.34326588257634    9.23042584158793
H         2.52106876444808   -0.16493591340707    9.26688438455271
C         0.41229177038699   -0.37227125433754    8.97064645608888
H         0.46368632486769   -1.43848079221688    8.80687282189487
C        -0.81017344293781    0.27945859763477    8.90238580543460
H        -1.70932119972974   -0.27669821221729    8.68250769961591
C        -0.87085912901132    1.64443587829632    9.10050085247344
H        -1.81392600981866    2.17810969892672    9.02425021303396
C        -0.46616695142431    4.33107728616229   11.31728814364577
C        -0.74722915973217    3.26150090288505   12.15724497181367
H        -0.62245516820965    2.24859456528381   11.80102510337413
C        -1.18207358177077    3.49656100369695   13.45093375498851
H        -1.39656407609859    2.66297082863897   14.10347974851487
C        -1.34068262158012    4.79303102249029   13.90960629138276
H        -1.67972801381683    4.97094974901719   14.91931415855866
C        -1.06494996986520    5.86397916034722   13.07221851543717
H        -1.18707348511349    6.87557493491854   13.43143298545155
C        -0.63337736978703    5.63415467890903   11.78104335554072
H        -0.41622192395063    6.45920938900059   11.11348348807771
C         1.72458542268498    4.88862108069539    9.64917124700195
C         2.12656426968572    5.74235183685666    8.62883513793045
H         1.44752743552876    5.94038917607936    7.80739468207140
C         3.38354654344635    6.31946295623687    8.66774095359239
H         3.69765204064257    6.97961213400631    7.87331973898925
C         4.23699164773418    6.05035116016660    9.72515435926846
H         5.21910079461823    6.49872823915157    9.75427496666735
C         3.83219489231893    5.21087865807792   10.75191122141768
H         4.49681259608458    5.00916131070951   11.57937063570631
C         2.57711746340011    4.63222121450517   10.72061030707098
H         2.25059151654999    3.98772552300037   11.52616888790347
N        -2.53565936358869    5.96332569852943    9.12223144126311
C        -3.41326777435885    6.60759020948275    9.50010822925528
C        -4.45596157536274    7.44811944463862   10.01342543409756
H        -5.19182146862791    7.59355567364767    9.21734780444069
H        -4.94392834513131    6.93640375421682   10.84824421902666
C        -3.89115293437099    8.79790759248358   10.46691630392577
H        -4.69646848502852    9.42581383514160   10.83851811663712
H        -3.40886242925285    9.30404453592835    9.63494621916079
H        -3.16058997999303    8.65916721051502   11.26003532202995

