61
CSD_code = VASWIV | q = 1 | S = 0 | Stoichiometry = C17H36CoN4O3(1+) | MND = 6
Co        7.85393482513688   -0.28239262980736    4.43936611458822
N         7.89384633524288   -0.57681239759354    2.55503853276920
C         7.21596259745636   -1.85309094691483    2.20841643327958
C         7.16294715645576   -2.77258832726371    3.45096407388809
N         6.86760624078668   -1.93449871709502    4.61547022535444
C         7.03719418367125   -2.48251632894561    5.97281994173047
C         7.07964561269024   -1.25438355175448    6.90379881284225
N         7.99337241768225   -0.22827557975983    6.36280081679335
C         9.42309065480484   -0.38192297766668    6.75957529015817
C        10.29524201076039   -0.30204631109748    5.49467812075388
N         9.64555620112914   -1.16856130807956    4.49506103563689
C        10.20047388697855   -1.28247605349709    3.11681997345175
C         9.31370003203795   -0.44961543071967    2.17882371658132
C         5.80520813820537   -1.53430568967396    1.69402761665673
C         5.82324550870380   -0.88477843006492    0.31354521309896
C         5.91412643251173   -3.45588185952872    6.34811315165433
C         6.11865249990288   -4.10532909780906    7.71270475611103
C         9.80391124698360    0.67881543419268    7.79495548845654
C        11.20999864114379    0.48945314256182    8.35435582330683
C        11.67515574297969   -0.89779632114085    2.96775596531167
C        12.62230797413296   -1.95864159681177    3.52058418595819
O         8.37475124029511    1.46135480306622    4.25192952953330
O         6.38461316672877    0.77430510568012    4.37939706166614
C         7.11742723734325    1.87659130220494    4.24720692195499
O         6.72194729908597    2.99744232399934    4.14407055965054
H         7.39361258494531    0.16354918173422    2.05786082211686
H         7.77611681388766   -2.36084208805064    1.41287196923782
H         6.40845104415917   -3.55100427781623    3.29701572771178
H         8.12320619061120   -3.26940971502879    3.60619376540565
H         5.89394585988745   -1.62940468693110    4.53936909714156
H         7.99453912034597   -3.01590219256733    6.01266453811705
H         6.07631145847429   -0.82362159392544    6.94448451814165
H         7.37580813226246   -1.54460801217042    7.91558681280612
H         7.68308765945078    0.68519519024504    6.70087323865842
H         9.54225347251064   -1.37876162577648    7.20359260025885
H        10.30796669489196    0.72485967277083    5.12735111499146
H        11.31315319417454   -0.62593552878086    5.72410955273795
H         9.67535436852078   -2.10240776268713    4.89972175946501
H        10.10223929557241   -2.33615683151100    2.82782356928559
H         9.58090233294700    0.60483900102588    2.28317015136073
H         9.47121766833657   -0.75597802547998    1.13916260927161
H         5.23108374512216   -2.45975421679904    1.63308804149103
H         5.30654003854559   -0.86722537103046    2.40102242448294
H         4.80486617963919   -0.71988642643824   -0.02527826058589
H         6.31983408987119   -1.52765628230046   -0.41001115160176
H         6.32293964180755    0.08180660938078    0.31917792937012
H         4.95976382442122   -2.92583467889174    6.33765867267069
H         5.87035750536552   -4.24233225567784    5.59210102692754
H         5.35544275045212   -4.86028619966381    7.87611001289240
H         6.04249467797120   -3.37710857870866    8.51461668537450
H         7.08998371213640   -4.59082508429890    7.77020160604547
H         9.72306192246646    1.66592085593400    7.33593564126965
H         9.09062071439233    0.62861235841673    8.62141725798996
H        11.38168766682689    1.20058088156764    9.15666848002849
H        11.96581017519366    0.65781070715762    7.59298761259972
H        11.33530731020659   -0.51237816009215    8.75919652305070
H        11.87926370895398   -0.77712047760142    1.90296723598621
H        11.85887666052489    0.06556281480580    3.44090202221107
H        13.65129707493863   -1.64039345027025    3.38277204726228
H        12.49047202321302   -2.90121939566210    2.99398673857633
H        12.46771340412351   -2.13623291135978    4.58214824606301

