70
CSD_code = VASXUI | q = 0 | S = 0 | Stoichiometry = C27H33I2N3O2P2Pd | MND = 4
Pd        8.36906243281533    7.65139267097390    5.81844236646382
I        10.34388934397485    9.23495072178457    5.24292828431054
I         7.61817806103292    8.79280873301632    8.05117442516075
P         6.74146279856931    6.16405735833703    6.23240739443834
C         8.40665033150406    5.14398052440361    8.13233504970832
C         8.81955876075784    4.28569967973286    9.13372135532725
C         7.96435833974988    3.28955889129940    9.57654545343304
C         6.69755899209521    3.16206077029282    9.02815564562809
C         6.27814722300896    4.01748902001537    8.02548762532583
C         7.14036352433738    5.00919244048261    7.56455019209945
C         4.97903995880489    6.62907312401960    6.52394849210421
C         4.43125254098055    7.61789574790803    5.47190974209186
C         5.50964011707152    8.43864187061054    4.98104119423384
N         6.45645559766719    8.97970125223712    4.62317982990465
P         9.14762541854879    6.32447561391739    4.18528029919367
C         8.42482921293741    8.06588505154204    2.18354417628105
C         8.35435125564930    8.52449261983694    0.88028984321544
C         8.90788583264303    7.77691773788940   -0.14517604485893
C         9.53785231071940    6.57215108343345    0.13010317821744
C         9.61569607526404    6.10665270224645    1.42874580824191
C         9.04977351429537    6.85397486204227    2.46041147812781
C        10.87181271465823    5.70155534407432    4.35506058645459
C        11.23454345096303    5.51064443950131    5.83293873930708
C        12.58408728575744    5.02060482026510    5.95844117940406
N        13.64563836788249    4.60538950827919    6.03186372111858
C         5.96053472323478    3.83465552915677    4.57378392782017
C         6.69204317735642    5.16501396466839    4.67325819767744
C         8.13735662306536    4.76933039183255    4.33574883906209
C         7.93957379756069    3.80201427987845    3.17454111543294
N         6.69032121889598    3.14853621223343    3.52058677145534
C         6.20653009772913    2.01057400892910    2.96136010804181
O         5.15791705304860    1.51961303937838    3.30837155261352
O         7.04487992489183    1.56171366860454    2.01800804580881
C         6.74725672681523    0.33420493277386    1.30172879768512
C         7.92927501704727    0.17107465469087    0.34577941693526
C         5.44188266828925    0.48012128700100    0.52171934745995
C         6.67725275365388   -0.84125402927334    2.27524885963261
H         9.05895240728593    5.95999661302732    7.80615556463864
H         9.79870583174693    4.39975723165479    9.57391149072209
H         8.28019660615126    2.61813211957150   10.36030030423341
H         6.02872267831952    2.39378961202985    9.38617304528096
H         5.28276335818432    3.91669062560710    7.61732236945136
H         4.95632653990381    7.08551575389216    7.52082015708624
H         4.37030415239057    5.72046260684891    6.54157834926089
H         3.65711531520227    8.25273558628781    5.91064938127885
H         3.99863624506696    7.08359557096917    4.61998354381653
H         8.01373558908433    8.66040520841181    2.99388822881152
H         7.87769577374395    9.46965795567560    0.66977638027640
H         8.85955263648438    8.13580405697497   -1.16225380049272
H         9.97813723583030    5.99643779093880   -0.67052008899673
H        10.12105835396316    5.17469817422849    1.63908961234150
H        11.53667555124817    6.44387931508574    3.89904619852307
H        10.96589424738418    4.75628813002621    3.80924919832347
H        10.56720490826384    4.78185946424060    6.31029946606002
H        11.15866450235449    6.47213812062567    6.36745027995295
H         4.90601648622859    3.92196803288410    4.30018154017503
H         6.03158596669973    3.26126850444339    5.50753696278029
H         6.33244102992223    5.85120354363503    3.88635710073242
H         8.54829419352711    4.21683181106616    5.19818986596188
H         8.73886198525347    3.06388188166893    3.07757574531879
H         7.83679397409031    4.33554497969065    2.21981279659673
H         7.80042849463917   -0.72637711500360   -0.25122291013908
H         8.85705786175898    0.09282221550842    0.90665022416995
H         7.99611750445442    1.03096772998971   -0.31566873765462
H         5.27230144614877   -0.41119224134952   -0.07533811714122
H         5.49450687909472    1.34302822818503   -0.13914099128418
H         4.60848607024744    0.61025853530801    1.20654800976914
H         6.54308872352069   -1.76593689683252    1.72156519612891
H         5.84164148540411   -0.71414806635209    2.95803116796954
H         7.59779872309450   -0.90640960702176    2.85203747143949

