55
CSD_code = VASYUL | q = 0 | S = 0 | Stoichiometry = C24H20FeN8S2 | MND = 6
Fe        5.52697072176248    5.80239184170128    3.38156849610576
S         9.65669387074984    5.40023099886394    5.08289102274122
C         6.26005948586430    3.27163616930341    2.10894593496293
H         6.79791951626877    3.19946927357188    3.04163880520629
C         6.22823577676635    2.21640230346433    1.22670719602014
H         6.73573251348876    1.29509293283687    1.45943662684397
C         5.50779404854089    2.36353814760550    0.04623829028689
H         5.41458035615904    1.53913005469986   -0.64473357299251
C         4.93303094077364    3.58190924559738   -0.25236678450239
C         5.08430799110611    4.62990022645250    0.68665745052123
C         4.78373507117501    7.10991206624126    0.90442813998349
C         4.34590421658748    8.20874729962701    0.16322246319096
H         3.94345538965009    8.05941332845854   -0.82679237441181
C         4.41449402733786    9.47647049415165    0.71345243885642
H         4.07836879582237   10.33535091544924    0.15473509731392
C         4.89067303463287    9.60827046337401    2.00421470789517
H         4.90803215108862   10.57072856066384    2.48693873996169
C         5.31036280691619    8.47333074510910    2.69063811208174
C         8.38581170205996    5.58185510513903    4.15031912544142
C         4.16883118046374    3.78439525723804   -1.52634110700245
H         4.10454741771191    2.84559124730840   -2.07024477668595
H         4.65852043696713    4.51368602592525   -2.17291384977374
H         3.15337687649062    4.12172328162757   -1.31588992677932
N         5.65613494834915    4.44273574682035    1.87907886780856
N         4.64830019079265    5.87439163255090    0.31444680711189
H         4.12535926063696    5.89248117091534   -0.54938656990146
N         5.29710915927364    7.23467703998040    2.13518860365653
N         7.44628175560123    5.70970998670239    3.45616254535922
S         1.39725750793300    5.40114104435080    1.68041946512369
C         4.79374395653747    3.27146895084668    4.65498521015682
H         4.25544233613709    3.19933977354635    3.72253665065333
C         4.82607879360893    2.21620337606292    5.53718943924646
H         4.31856923655653    1.29484001283482    5.30469840391855
C         5.54699720470135    2.36340458946832    6.71736552571831
H         5.64050921179856    1.53902669432821    7.40832777278115
C         6.12177780330800    3.58181127829790    7.01576119301840
C         5.97021646195682    4.62974107065439    6.07669480649660
C         6.27116357939480    7.10968005359790    5.85854935908853
C         6.70973651520542    8.20843057300590    6.59946040608695
H         7.11335499458322    8.05894293381779    7.58898177891501
C         6.64033784406952    9.47625606004807    6.04957470257326
H         6.97697621869140   10.33506351716863    6.60809669278367
C         6.16283584960981    9.60824737072190    4.75931497122442
H         6.14469048981151   10.57082518275922    4.27685807350065
C         5.74309776342277    8.47330138942748    4.07291743885033
C         2.66901190337559    5.58298352977741    2.61175511819501
C         6.88612987141874    3.78446715532068    8.28961796567800
H         6.95110126774675    2.84559421812079    8.83331660365096
H         6.39603478991216    4.51330976261724    8.93639274406466
H         7.90133669707889    4.12249018416790    8.07912744810139
N         5.39779490221200    4.44253227601440    4.88458792315301
N         6.40666110715362    5.87417538666454    6.44852151148829
H         6.93010012086954    5.89224236498015    7.31205679309552
N         5.75696844088435    7.23456889675039    4.62813775765009
N         3.60765148898535    5.70914079326141    3.30741373548870

