64
CSD_code = VASYEV | q = 0 | S = 0 | Stoichiometry = C27H31AgNO3P | MND = 4
Ag        0.46888626243850    5.71126485111881    8.54293502342446
P        -0.28227234365519    3.36202924336331    8.14576009511525
O         1.97695625306185    7.12318519316607    9.52769999396459
O         2.40057957114957    6.58776061863056    7.43751988671334
O        -1.75670607482110    6.07190015243963    7.90549184734753
N        -2.47374254789163    5.64860831566824    5.79796561712889
C        -2.09136624224088    3.09398396737174    8.19012456033997
C        -2.66587440685948    1.97943774102824    8.79338636634970
H        -2.03071324318590    1.22053164191856    9.22732732220323
C        -4.04101452841185    1.83814324062225    8.85355098206416
H        -4.46983988646014    0.96759647688745    9.32729792535705
C        -4.86273305022700    2.81709744465033    8.32213679199720
H        -5.93610301852885    2.72115714394376    8.38578144918848
C        -4.30397347107903    3.92780897790441    7.71362565346377
H        -4.94281096830303    4.70341813156457    7.31784169012656
C        -2.92469621635917    4.06643182454075    7.62254082130758
C        -2.32638593258443    5.33803322641764    7.09780537498736
C        -3.09458923369816    4.73879275057078    4.84377192439432
H        -3.29567354218870    3.80908756394191    5.38468232610545
C        -4.42220359542080    5.29817635454037    4.32663294537446
H        -5.08065757320364    5.55208026706442    5.15307032681953
H        -4.91564995258619    4.55290824770622    3.70863873079852
H        -4.26704528439265    6.19074452540937    3.72613534553755
C        -2.15662721870570    4.40129170307439    3.68373583908088
H        -1.18782581291057    4.08770912007482    4.06018849552381
H        -2.01643297902767    5.24766124530368    3.01708474098349
H        -2.58170818641573    3.58402072593721    3.10684252432746
C        -1.95534934532395    6.92623690825717    5.29103917172827
H        -2.28054040081455    6.98846206874743    4.24886682192593
C        -2.56359408509997    8.11214956033678    6.03829094773510
H        -3.64927075835116    8.03877977478539    6.05042239645420
H        -2.28258789492429    9.03522370290607    5.53793413403587
H        -2.20222392309317    8.14563945820886    7.06113953866606
C        -0.42896139806377    6.96703140682299    5.31598383523324
H        -0.01090214466579    6.13818796769187    4.75021509383622
H        -0.04293331971725    6.91829863623884    6.33868894242995
H        -0.08405438067787    7.89737973302773    4.87309217277919
C         2.68237294387879    7.18975321157515    8.49596646371925
C         3.94146330423222    8.04168356934588    8.54340479022144
H         4.42269435271038    8.05074131006148    7.57008647441128
H         4.61827081705527    7.63080339511500    9.28880952484066
H         3.67826718907334    9.05304819757153    8.84269250639247
C         0.08108543607891    2.85723832718613    6.43120734997907
C         1.12652227562665    3.50628647206101    5.78052169367307
H         1.65207139936218    4.31062208979178    6.28664849625924
C         1.48224612372082    3.12780183879369    4.49702746685818
H         2.29458988957661    3.63163264751669    3.99518560614437
C         0.79758860692786    2.10506701122349    3.85957214325576
H         1.07756941816547    1.80777401640334    2.85979308031551
C        -0.25231196608925    1.46547208406908    4.50133286297862
H        -0.78827888632402    0.67168029687242    4.00146252293899
C        -0.61443965610076    1.83925726890095    5.78300402697023
H        -1.43287172998908    1.34060419612427    6.28496630924606
C         0.32403739265434    1.94239198233540    9.11824311000447
C         0.87680080935309    0.78688725490970    8.57945517941405
H         0.94454399259618    0.66391487904363    7.50824888129393
C         1.34581526248636   -0.20837993126903    9.42015130619241
H         1.77407840862380   -1.10565982186538    8.99752776547594
C         1.27152978347397   -0.05810764014087   10.79453205394540
H         1.64047934847251   -0.83812793606233   11.44381476460602
C         0.73487225652970    1.09985736275547   11.33717542732154
H         0.68756580443476    1.22479380102980   12.40883943982819
C         0.27310338485627    2.09893789061663   10.50332579757518
H        -0.13182508814611    3.01677631414817   10.91365730127706

