35
CSD_code = VASYAQ | q = 0 | S = 0 | Stoichiometry = C18H12N2PtS2 | MND = 4
Pt       -3.16939487339378   10.02537587362811   12.89606527092531
S        -5.07104293646751   10.76042308256451   14.06255964647869
N        -2.37223194819797    9.82042755867220   14.72052327716542
C        -4.43122200172430   10.62151969133797   15.65690131154164
C        -5.18646201109353   10.95966406009011   16.76663887589192
H        -6.19398599867449   11.31647462002522   16.61888427901582
C        -4.65782340742517   10.84240602637409   18.04836587010357
H        -5.26792916875498   11.11442737935686   18.89664744976277
C        -3.37671852550526   10.38657212876787   18.23995749676990
H        -2.96266179564963   10.29293288469441   19.23212233523785
C        -2.57711448369741   10.03077115349259   17.13892702247992
C        -3.10410796520069   10.14882908902037   15.82146680775031
C        -1.25933213597693    9.55538372577017   17.27932363163189
H        -0.83394542061784    9.45614628912213   18.26704551780446
C        -0.54797033121120    9.22881709780331   16.15669374612486
H         0.46323367084573    8.85974289820884   16.21785491264902
C        -1.13820354729161    9.37538343436715   14.89889504168661
H        -0.56697579889394    9.11564703086769   14.01943585113951
S        -1.26769726479301    9.29043518274922   11.72933437311347
C        -1.90764694691195    9.42942385089961   10.13502314434888
C        -1.15253884458679    9.09141421591601    9.02514914859291
H        -0.14496656638453    8.73466217499159    9.17271239307315
C        -1.68136104984081    9.20872002206447    7.74349268205123
H        -1.07135489471570    8.93680335726837    6.89510496745380
C        -2.96252559588183    9.66445635197313    7.55208251763198
H        -3.37673086800975    9.75812108185527    6.55998077348444
C        -3.76200353944082   10.02012450323671    8.65324246106325
C        -3.23481085300857    9.90203294203416    9.97061973284865
N        -3.96656848247945   10.23033103197676   11.07166067430649
C        -5.20065859144004   10.67527047541281   10.89347627700270
C        -5.79108769289363   10.82184585705853    9.63578065486255
C        -5.07984523005057   10.49540323714489    8.51304192741780
H        -5.50537397032359   10.59465409153759    7.52538548128783
H        -6.80233407343871   11.19083443939042    9.57479850686068
H        -5.77180685686916   10.93492316032683   11.77300594044085

