56
CSD_code = VATBUN | q = 1 | S = 0 | Stoichiometry = C29H22AgN4(1+) | MND = 4
Ag        1.88235785753279    2.01610369661214    1.32229381640887
N         3.27314348445602    0.50776635381242    2.09845475187955
C         4.31572718513745    0.12861922404432    2.39089814957195
C         5.59863498288983   -0.36744152621861    2.76155228761242
H         5.89777132847857   -1.15639660572103    2.07134446238205
H         5.55600729036605   -0.76981992985433    3.77370412784504
H         6.32649763413811    0.44246480410995    2.72400717809946
C         3.64506697809053    1.06586347610203   -1.23693168174197
C         4.09450666251404    2.24881693060481   -0.64550553716710
H         3.43832016702808    3.11373537000356   -0.61145523908639
C         5.40828190117322    2.35646855576889   -0.22253642359815
H         5.76814285762192    3.28960183090809    0.18204737199925
C         6.27266197060524    1.28162254188092   -0.34995759283491
H         7.29868961378310    1.37120190551374   -0.02563895846773
C         5.82566212810124    0.09891368603475   -0.91664856421940
H         6.49971263257868   -0.73786410130108   -1.02402414539394
C         4.52276579249607   -0.00737744888598   -1.36727905677572
H         4.17960699538640   -0.93092595669017   -1.80864103956905
N         1.33625547136186    1.55895717779279   -0.95557001798944
C         2.25785759406555    0.97019744485203   -1.71374950556033
C         1.92178110737663    0.31141736343805   -2.89630853851472
H         2.68999221078712   -0.12773626309557   -3.51201333098263
C         0.59048847883198    0.25224797420282   -3.26933964939219
H         0.29868230934644   -0.25765638109714   -4.17468954098380
C        -0.36512324742752    0.85425433754180   -2.46679694924690
H        -1.40991493653737    0.79512508366585   -2.72360891458588
C         0.05115482072975    1.51302142491514   -1.31249501607315
N        -0.45132446302410    2.34625259477143    0.84985970095111
C        -0.88130625171699    2.19822649489618   -0.40114302699654
C        -2.11985871669460    2.68971356300951   -0.81147757928765
H        -2.44715658110128    2.58487864471571   -1.83276730869670
C        -2.91235587341093    3.34625645466816    0.11543417780331
H        -3.87295463078652    3.74401370135078   -0.17408791373965
C        -2.45467966128476    3.50038439879381    1.41349598490795
H        -3.04477760794044    4.03228797546636    2.14155518512765
C        -1.20385307003494    2.98163791948558    1.74526347187315
N         0.72532386233676    3.06935585515928    3.12278925697448
C        -0.60745607432234    3.12277738155335    3.08455036998845
C        -1.36686616365432    3.29765756682194    4.23876221017477
H        -2.44359347771556    3.30361440141546    4.19672881201643
C        -0.70990328456431    3.43936997357476    5.45044133672231
H        -1.27141740112990    3.58477030353408    6.36060489792534
C         0.67297716407787    3.39291819237325    5.48016349038938
H         1.21219681410906    3.52442271483594    6.40432190400469
C         1.36258179678702    3.19267792815260    4.28455355613386
C         2.82951153835610    3.11965935137162    4.22539469853853
C         3.50695099966447    3.70640724423006    3.15381035740576
H         2.95004651042755    4.27543040948907    2.41520201577618
C         4.88997173990142    3.67191913083174    3.10551877164678
H         5.41245164922235    4.17719168173763    2.30805051524010
C         5.60647451994157    3.02354527066799    4.09813909593729
H         6.68570785277608    3.00583686412491    4.06218772433155
C         4.93801194754602    2.42039746250914    5.15128473363886
H         5.49496543185552    1.91971032643150    5.92909232954426
C         3.55814770289796    2.47605358929872    5.22225016751482
H         3.04225245657884    2.00605163568026    6.04590862051523

