71
CSD_code = VATDEZ | q = 0 | S = 0 | Stoichiometry = C37H30FeIOP | MND = 8
I         2.25649835236907    1.17777705322916    2.57225896829799
Fe        2.12771495839486   -0.85986346192616    4.05642857803611
P         0.07903581489986   -0.44997156294378    4.65535914694444
O         3.08933931875562    0.27506030338610    6.52272301819537
C         3.80888784056297   -1.95156721722042    3.13510754907385
C         3.56223195639151   -2.44570158896396    4.43271021104383
C         2.24102750361591   -2.95105017917427    4.47233236748636
C         1.69068594253460   -2.84647947629866    3.16272442679653
C         2.63961523830732   -2.21878348953325    2.35056143124614
C         5.10855113739503   -1.41054326966335    2.60860308967783
C         5.98427122721386   -0.99847286810448    3.77558545778800
C         5.81488978606387    0.26115815457838    4.33636011005075
C         6.54543456840938    0.63978176100634    5.44762506064025
C         7.45782697106511   -0.23646203833669    6.01027216688960
C         7.63686647471537   -1.49043043884451    5.45248828862718
C         6.90175903259853   -1.87174453397596    4.34325036487546
C         5.79555956496654   -2.41070577307670    1.70584929284181
C         5.62340411333785   -3.77999791727080    1.86320965189786
C         6.28755699633632   -4.67053955430618    1.03754066557268
C         7.13369705654412   -4.20331912018509    0.04736212204240
C         7.31246817323591   -2.83953808119828   -0.11386533816931
C         6.64704713627890   -1.94993944408425    0.70944428668143
C         2.67398474438744   -0.10405625960715    5.52355243623035
C        -1.16131139486247   -0.12997908222569    3.35215133116621
C        -0.91316262778285   -0.61353657238849    2.07136191381778
C        -1.83432975601245   -0.41850111749976    1.05990583205904
C        -3.00992407775213    0.26620127741317    1.31941997732607
C        -3.25929403544122    0.75528434568261    2.59111290130908
C        -2.34100509184249    0.56168782261652    3.60728175639428
C        -0.28890476484880    0.85999647315655    5.87214031929116
C         0.43509096474982    2.04747725649433    5.83519994944822
C         0.16062891676844    3.06094089794059    6.73569242702730
C        -0.83847582783456    2.90006027356199    7.68057687579013
C        -1.56777193103144    1.72275932705257    7.71949546019626
C        -1.29875305656787    0.70674398269211    6.82129707850539
C        -0.61701406450928   -1.90557320532394    5.50131197154788
C        -0.04989481751810   -2.24795964393452    6.72790763611191
C        -0.48276161807586   -3.37031769778547    7.40505658865867
C        -1.47369155276561   -4.17030377873841    6.85368664513204
C        -2.02741914091248   -3.84310811532028    5.62803274239186
C        -1.60131227421435   -2.71360579413730    4.94854870578104
H         4.27191178412314   -2.47081479879279    5.24283476814043
H         1.79960495014776   -3.49273944343833    5.29289093365462
H         0.74471156200418   -3.25865809726042    2.85062021161045
H         2.55850112709320   -2.03515396812297    1.29082528623981
H         4.89668813820028   -0.51464736816118    2.01142500587153
H         5.10920558438697    0.95175319109711    3.89996079194182
H         6.39949627563943    1.62062887269008    5.87494500429871
H         8.02870458164488    0.05665305576290    6.87915001161286
H         8.34934931738793   -2.17880046538683    5.88426025227690
H         7.04508642266235   -2.85446568151245    3.91691937473857
H         4.96653272945365   -4.15634906016388    2.63537464944460
H         6.14362137019997   -5.73332649547428    1.17034609994377
H         7.65148326297730   -4.89898042499318   -0.59641668453344
H         7.97099270646601   -2.46779634908942   -0.88510147314593
H         6.78747014385331   -0.88616512672809    0.58129388358037
H         0.01212608243785   -1.13231752965555    1.86519583293035
H        -1.63093168072766   -0.79185715345736    0.06722688900853
H        -3.72778955618944    0.42615462661235    0.52888041321702
H        -4.17201920318763    1.29639229028540    2.79311518558813
H        -2.53765434239178    0.95453202871807    4.59443270823091
H         1.21449389668541    2.18198896328028    5.10055466093517
H         0.73047025324345    3.97698242814785    6.69787811512799
H        -1.05033925072722    3.68950416163321    8.38621617145285
H        -2.35074108225519    1.59332524852890    8.45267449650704
H        -1.87279512812772   -0.20926583486029    6.86025920283797
H         0.73157653430489   -1.61958566572947    7.13705324699880
H        -0.04688815001695   -3.62810561027851    8.35919177647809
H        -1.81034625436914   -5.05072765492029    7.38048915447500
H        -2.79538109499024   -4.46892379645910    5.19733270991519
H        -2.03748873626905   -2.45691199025444    3.99270785539104

