55
CSD_code = VATHAB | q = 0 | S = 0 | Stoichiometry = C28H20N2O2S2Zn | MND = 4
Zn       10.26701721565499   12.73759157637930    2.44119509660684
S        13.94682309395726   10.19870679925207    2.30039657961148
S        10.40524909464550   16.72376795530474    4.46883896232286
O         9.45463961937022   11.27571909740789    3.13802903652567
O         9.55349157435039   13.63345095655689    1.03840112815102
N        12.02077836472210   11.90979265613107    2.16916290473837
N        10.43191324989967   14.28352915126424    3.63275004045209
C        15.45861349227278   12.23731796043243    1.06761325218148
H        16.34551858789748   11.62389523771138    1.06033761854026
C        15.46549666870582   13.52132746725738    0.55688383557691
H        16.37720492675535   13.92229398664624    0.14144397923477
C        14.31210218527064   14.30243649993410    0.56808506357740
H        14.34408212467035   15.30060342843249    0.15864520608882
C        13.12960263614049   13.82149454658293    1.09061745132757
H        12.22916021163388   14.41614384981884    1.09190576150564
C        13.10464747122329   12.53173014234956    1.61206810271413
C        14.27360216753900   11.75223462701437    1.59275397702760
C        12.27266506549665   10.68835211981985    2.58065507379355
C        11.35877426262718    9.79652445805687    3.20178933552905
C        11.81105580929729    8.51975854955944    3.59418233191727
H        12.84588656942692    8.26658477983856    3.40728470759223
C        10.98965494708122    7.61043968852327    4.19494391599442
H        11.36714674272062    6.64136089380515    4.48366508769536
C         9.64300814568523    7.93258936502651    4.43946868668092
C         9.17768402245436    9.16685945007949    4.06612716649516
H         8.14866742920587    9.44487941165158    4.23918825578770
C         9.99026180739530   10.14314463644638    3.44041260256659
C         8.75167005957780    6.92589184328117    5.09599880400048
H         7.75826439382940    7.33273337159538    5.26251637990481
H         9.17163954593853    6.61686369187408    6.05230091369700
H         8.66605564384645    6.03813656663065    4.47027038603020
C         9.59613735964195   15.86052436715807    1.96419727452932
C         9.33321319427603   14.89945280383530    0.93622878011297
C         8.80440027732927   15.38784715278156   -0.28301184616694
H         8.61070121883474   14.64950928840936   -1.04686350349112
C         8.54065381284509   16.71441888969028   -0.50700900369839
C         8.80748028726637   17.64312847163742    0.51433096835919
H         8.60447773278650   18.69030870465443    0.34944430781006
C         9.31744610506962   17.21873066087230    1.70698190727950
H         9.51874530638014   17.93695434992536    2.49025646529377
C         7.97316658119009   17.19068295371980   -1.80706291227296
H         7.88294602160380   16.37352284881787   -2.51720515494019
H         8.60869328085951   17.96397212149364   -2.23646938201251
H         6.98676280164552   17.62477045503045   -1.64661236621677
C        10.11571390112525   15.49403178812094    3.23384096439830
C        10.90841673926648   14.23891522301747    4.91454773859293
C        11.31275877604535   13.09667307756782    5.59862078971768
H        11.24888335054748   12.13321259011015    5.11706721664423
C        11.77373240673600   13.22660448115689    6.89215392660769
H        12.08765604270782   12.34746052194625    7.43399876673685
C        11.83807711994733   14.47217279950736    7.51253314536606
H        12.20184199337223   14.54513796876691    8.52588939899679
C        11.43843713503839   15.61697724336272    6.84973065490669
H        11.48094158048498   16.58506257360100    7.32293768048699
C        10.97543984570664   15.48957390015652    5.55174253908874

