38
CSD_code = VATHUW | q = 0 | S = 0 | Stoichiometry = C14H15CdCl2N5O | MND = 5
Cd        0.93868625132319    9.39068950824946    7.25878441055440
O         0.21593359960884    8.93724572257413    5.00663581730743
Cl        3.17427902066353    9.60977483391974    6.44381080870190
Cl        0.40154675811435    7.92876207901702    8.97445176104332
N         0.47768361283863   11.49916894512659    8.42409986995762
N        -0.09122942548262   13.93539050677102    9.53689536711668
N         0.74269651037303   11.37610097971950    5.77223493219796
N         1.18952419703552   10.95618307583364    4.57741811145022
H         2.05553677740654   11.36232130862338    4.22360956979523
N         1.59055478273761    9.17059984373412    3.19318841905620
H         2.16832056708445    9.83433551225069    2.69496280423599
C         0.05103939244748   11.58183490726588    9.67344378667906
H        -0.08466625423746   10.64820127265179   10.20348747981937
C        -0.18709152569674   12.82706799246322   10.24668213667792
H        -0.47491257068705   12.94165815886903   11.28172587171870
C         0.29375235418591   13.86273927885803    8.27074048641995
C         0.64423057217331   12.61931550751764    7.71198699766864
C         0.27894649927621   15.14491386475946    7.50529628019987
H        -0.48355178139155   15.79376456634316    7.92856581490984
H         0.07774538323714   14.97374859842874    6.45208412305511
H         1.23531929831562   15.65686182231804    7.60510771075781
C         1.19477817680353   12.41492927156626    6.36173966615183
C         2.30166698541607   13.28337417198170    5.84242477026333
H         3.16731421134613   12.64489138312633    5.65110517488962
H         2.59011782442893   14.02975055860202    6.57348549839162
H         2.01961055191551   13.77952021318686    4.91366463925323
C         0.96351493716495    9.60275975120762    4.30797990390983
C         1.68420505634534    7.85428660756179    2.70620247538981
C         2.38242849227598    7.66534556070713    1.51604224978443
H         2.82195595103799    8.51455264759051    1.01100971519775
C         2.51889362961113    6.39838767455866    0.98218522145199
H         3.06220848465907    6.26364125664426    0.05894721254435
C         1.96484244193442    5.30763288243590    1.63132918748635
H         2.07300134167621    4.31759969858423    1.21563662906276
C         1.27655936740041    5.49532442835419    2.81748578354062
H         0.84805692045225    4.64933243360596    3.33280516633035
C         1.12949433697392    6.76018413907204    3.35941777101348
H         0.59410727131660    6.89520903597316    4.28492637607547

