74
CSD_code = VATKOQ | q = 0 | S = 0 | Stoichiometry = C23H36BN6O4PS2W | MND = 6
W         2.31460984577850   -2.52678862226125    0.12694713319774
S         2.10689195349896   -2.12028537786023    2.55118965966685
S         3.36749649611038   -3.67704892014589    5.39386371452049
P         3.07821223284145   -3.69040913740816    3.45969884033338
O         5.35062056306353   -3.17183905961350   -0.13121983502901
O         2.73818617271954   -5.60800164439777    0.20593334619477
O         2.14798854664515   -4.89829351815388    2.96040639131548
O         4.43169961740532   -3.88896826144034    2.60467145279641
N         2.17623861799776   -2.49202004222084   -2.07842157264022
N         1.37144336417883   -1.57337587403647   -2.65689244543898
N         0.16574812586661   -2.32148460382154   -0.05968921489413
N        -0.37121978869461   -1.41872489103096   -0.89909150643943
N         2.34103920176474   -0.37651105071765   -0.13496515164468
N         1.47712651681906    0.23499562667342   -0.96224367773708
C         4.25172030959623   -2.84200351537460    0.03545357236663
C         2.46214417447740   -4.48363982755428    0.22292837121145
C         2.14896685083993   -6.16174177819578    3.64198281418424
C         0.94020305242995   -6.93327070724596    3.13522765476113
C         3.45055708866318   -6.90339754425395    3.38260866058807
C         5.72663244135410   -3.80944436168143    3.21384690768997
C         6.21915563135171   -2.37038999779834    3.19211228313879
C         6.64855981865516   -4.74556330357711    2.44762718887945
C         3.72893780686848   -4.30047458441523   -2.83784069392278
C         2.76642816681641   -3.19046140167221   -3.05927983378864
C         2.32713841427673   -2.70350276933094   -4.28708657391818
C         1.44270972918771   -1.67731455525626   -3.99229883645343
C         0.68836979972499   -0.82254353105940   -4.94375337513647
C        -0.62816607866126   -3.96770652023223    1.61528692144165
C        -0.83548037028686   -2.90544199902678    0.59993414133879
C        -2.04659780903736   -2.35438645383552    0.17565524007366
C        -1.71260319897877   -1.41212318244643   -0.77900746330598
C        -2.61574858418651   -0.53091278643638   -1.56293656467665
C         4.15761439644505    0.26753585245564    1.42599741056560
C         3.07984333318283    0.56744337499351    0.44884676660020
C         2.66994624332489    1.82039639747393   -0.01347002097600
C         1.64845621530803    1.57033741638581   -0.91027363539286
C         0.85256774263905    2.54343284237478   -1.70188687373578
B         0.51985777732327   -0.58862448804777   -1.82200812328515
H        -0.12216259627695    0.10114702350525   -2.52747598120352
H         2.04978385903872   -5.96198427570474    4.71864736674528
H         0.02963841703463   -6.37099339923333    3.32266237651420
H         1.03759733295073   -7.10515677293797    2.06610992555948
H         0.87705564539863   -7.88979317180240    3.64629593422991
H         3.39392535600386   -7.90850716379625    3.79240038297113
H         3.63350860240686   -6.95669127453309    2.31181489786844
H         4.27462273138097   -6.37694861087568    3.85996428903901
H         5.63296400309548   -4.13454205018668    4.26062625855841
H         7.17123940937944   -2.29940777966680    3.71076769754442
H         6.34565040742384   -2.03276887317625    2.16669508444125
H         5.49616023714718   -1.73024347375533    3.69446065242554
H         6.27319327539749   -5.76458444620890    2.48639979118617
H         6.70123268686959   -4.43532307079905    1.40791588822933
H         7.64295370491421   -4.71580351717892    2.88425640043277
H         3.31540796955013   -5.04559076803067   -2.16216588409596
H         3.95792379821397   -4.77446584158536   -3.78903910825386
H         4.65567355377507   -3.92878619925794   -2.40408533388012
H         2.61232014189637   -3.04947009599743   -5.25935013252809
H         0.94516356217418    0.22596283527427   -4.80629490153873
H         0.93118218638969   -1.11411304013943   -5.96175573396979
H        -0.38385350601808   -0.93043796407167   -4.79220809229296
H        -1.54086291433806   -4.54646212047209    1.73909754335329
H         0.18910995735486   -4.62566330345446    1.31517571400717
H        -0.36347605071978   -3.52465698391990    2.57736879382582
H        -3.02812802612476   -2.60986591490841    0.51901730922837
H        -2.38204881226393    0.51719915025558   -1.38471570528967
H        -2.51490763433905   -0.72345715140608   -2.62979025181906
H        -3.64508960112813   -0.71599477008654   -1.26854628683992
H         3.73601112686523    0.13312573877662    2.42329042405751
H         4.66959938643380   -0.65652710277493    1.14889264736447
H         4.87141089530190    1.08748748198842    1.45731666513714
H         3.06565961960128    2.77445190916724    0.26879597321827
H         1.17444364362233    3.55294378440295   -1.46164592383107
H         0.98629068260225    2.37656891847648   -2.76950886708717
H        -0.20788746830445    2.44900509431081   -1.47504288575398

