41
CSD_code = VATQUE | q = 0 | S = 0 | Stoichiometry = C20H15ClCoNOS2 | MND = 7
Co        4.11886019554859    0.81135361452310   23.32895311283582
Cl       -8.29249195507375    1.96258170181806   15.77132731261707
S         2.27187151296497    0.00969906085557   22.64140215654568
S         3.71405228066203    2.64203643668837   22.31648224036865
O        -5.60293720596205   -1.47127588276361   19.66815985558142
N        -3.55657377620737    0.13058048432932   19.52757432588293
C         1.51090399950199    1.25841036666147   21.71376998273749
C         2.19316940941376    2.43100071042651   21.58321828715848
C         0.20451227206176    0.99047051683412   21.13062850873628
C        -0.20452986360736   -0.32229121663527   20.87872196994649
C        -1.44240433027550   -0.58693921304515   20.34125707108702
C        -2.31003613727266    0.45971915287823   20.01628535523483
C        -1.91304464132845    1.77387536771911   20.27982975510440
C        -0.67802514178894    2.03196912387139   20.83105934256509
C        -4.20565900849896    0.83811310429997   18.68390120686992
C        -5.53871677465420    0.48084000432178   18.26651285598623
C        -6.18675935908836   -0.66401661129209   18.78299182959340
C        -7.48159319498874   -0.96274048616481   18.35073672873417
C        -8.12627097475664   -0.16184287413713   17.43464792916692
C        -7.48112514780618    0.96183638183070   16.92643207977840
C        -6.20529482560272    1.28205700309860   17.33342399627690
C         4.69552283857975    0.35468326561123   25.27289203616168
C         5.56213181929198    1.34225138392186   24.73366232245033
C         6.18738935630930    0.79886254750173   23.58969120851531
C         5.70983565499642   -0.52738999804642   23.41623699492637
C         4.79577568149154   -0.80092966296755   24.46151813835275
H         1.83700447979353    3.26555939295943   20.99989955875406
H         0.46713292803832   -1.13392666914245   21.11338850877368
H        -1.75165299156055   -1.60169075692640   20.14262757053574
H        -2.59737870397657    2.58693818245085   20.08444873686302
H        -0.40212408545567    3.05079800672821   21.05595890381111
H        -3.77823423853376    1.73253683234978   18.21728528253472
H        -4.69682580646012   -1.11077916451903   19.85483855902419
H        -7.96319074039826   -1.83843456803506   18.75561467690039
H        -9.12607130373976   -0.40042403720936   17.10847956142683
H        -5.71123293579151    2.15531219476193   16.93434936251886
H         4.15344819049452    0.42866880694100   26.20236473122548
H         5.78044711315700    2.30088326350493   25.17593709720212
H         6.96500143150574    1.27168503910506   23.01175084383935
H         6.07065935768709   -1.23935149334415   22.69092131839122
H         4.32415462141289   -1.75068931184271   24.65501868505375

