29
CSD_code = VATQIS | q = 0 | S = 0 | Stoichiometry = C13H12CoNS2 | MND = 7
Co        8.52190940254664    3.80898512165137    8.41374873818183
S        10.11757261252730    5.22316987178389    8.44547646400013
S         8.89853346754718    3.32946347233090   10.45199546371393
N        15.04876818211130    8.65273403568266   11.28323870773786
C        10.78307916331398    5.18183984623509   10.04366385843018
C        10.20215922733262    4.31602707547669   10.92358277267176
C        11.89690146205113    6.06100743338442   10.35855279352348
C        12.14380152999748    7.19975312568028    9.58686998220398
C        13.19097345495282    8.04309364961926    9.87558279668719
C        14.04305295733208    7.77818546461723   10.95103759546238
C        13.80689720749484    6.63503183310001   11.71962074577629
C        12.75517801974626    5.79612848958249   11.43037368844898
C         6.56748709279777    3.14770500754076    8.09575361436356
C         7.48349977706898    2.16213489154100    7.66385122766152
C         8.29225460559022    2.72938337286774    6.64436791433043
C         7.86987980811345    4.06558236794709    6.44921587978839
C         6.80791908399616    4.32930944749265    7.34794417498825
H        10.50512095435424    4.22274167526928   11.95446764171758
H        11.49314627363717    7.41829364218248    8.75386441966959
H        13.36129150944764    8.92231370976525    9.27082774421568
H        14.46456262559612    6.41115706982361   12.54758750514117
H        12.61118536825000    4.90939041323581   12.02815212808499
H        15.77748057888415    8.30960307340133   11.88638266563863
H         5.76331865235303    2.99539892762219    8.79747047997574
H         7.49363215354804    1.13110098930288    7.97901941324044
H         9.01492111605842    2.20138717065553    6.04266093819014
H         8.23250662701972    4.73666222428704    5.68746270882311
H         6.20925896108168    5.22608248010609    7.37167620434527
H        15.34280812525342    9.30533411781853   10.57595173299206

