67
CSD_code = VATSAM | q = 0 | S = 0 | Stoichiometry = C30H26Cl2N6S2Zn | MND = 4
C        -2.91652521007673    6.57963211457266    3.21506568657483
C        -3.79337167046465    5.49584028414138    3.19186235155763
H        -3.54904632391920    4.62515612427647    2.59816570418047
C        -4.99241573405045    5.55239205097287    3.87999268205835
H        -5.66517248973101    4.70862397451532    3.84675559551647
C        -5.32406169653320    6.67921753597510    4.61213806806075
H        -6.25148342251248    6.71706237597157    5.16325804184445
C        -4.46161266093493    7.76352482763509    4.63418445518339
H        -4.72008393660255    8.64325013774564    5.20501602983241
C        -3.27414963696049    7.72298172769970    3.92977460278070
H        -2.60120736422342    8.56815846023968    3.95267981880194
C        -1.63544241713794    6.51475878216253    2.51303833523164
C         1.03403322733653    4.37685956967714    2.20659291895576
C         2.93226218625305    5.22942480557424    0.82580074095071
C         4.22126732366873    4.88190763520016    0.41449366396519
H         4.63156312860542    3.91661229014700    0.67006118962647
C         4.97285497959740    5.77829556277745   -0.32051232282660
C         4.47490477904222    7.02578753400296   -0.66173063419050
H         5.07553291442620    7.71315057707487   -1.23476129078693
C         3.19510294741930    7.36066127591069   -0.25263498178481
H         2.79299511632934    8.32771409763355   -0.51471849518113
C         2.42338982113021    6.48022919716654    0.48100980503130
H         1.42991136124458    6.73663791177786    0.79955820893610
C        -1.19736470035264    7.65074620775077    1.64663691451427
H        -0.24722365336159    8.04344920556552    2.00863191016343
H        -1.94452124532447    8.43788778276389    1.61961411948213
H        -1.02751236135246    7.27794307290881    0.63659566228907
Cl        6.56759601697911    5.32973117237977   -0.81714028890604
N        -0.91325990009577    5.45863196455834    2.67616942436630
N         0.27002688478388    5.40778386558325    2.02617347018129
N         2.23471482543033    4.29953412808195    1.57482628550871
H         2.72506451742473    3.43389030098969    1.76335752012484
S         0.73597284016374    2.98150229463291    3.19339293172589
Zn       -1.09438294533459    4.06786610959080    4.22125440354145
C         0.72775359855090    6.57970124544011    5.22754087379727
C         1.60457643345378    5.49588886628999    5.25077904807448
H         1.36018473520834    4.62519860611617    5.84443637385986
C         2.80361116495857    5.55238077299173    4.56262783800057
H         3.47635322604124    4.70860231724056    4.59589756047570
C         3.13527407842436    6.67917589415876    3.83044435714580
H         4.06272604648089    6.71700912713167    3.27937387741774
C         2.27286067582809    7.76351043050724    3.80838930935268
H         2.53137821602564    8.64322786140340    3.23756970385359
C         1.08540492488088    7.72302460044856    4.51281301205852
H         0.41248261244179    8.56821826884195    4.48989021641227
C        -0.55335189352791    6.51482238157489    5.92952741417843
C        -3.22274515823853    4.37680842552001    6.23607880389716
C        -5.12103692384607    5.22944417196230    7.61672007952917
C        -6.41001782322606    4.88190789194469    8.02809310648206
H        -6.82033198799019    3.91663254552811    7.77248146083925
C        -7.16157188500067    5.77830012125455    8.76311516236029
C        -6.66360829179708    7.02577691600502    9.10435682238261
H        -7.26426354863259    7.71315486087590    9.67733048158336
C        -5.38381646671839    7.36064135700119    8.69525413279226
H        -4.98170499351980    8.32769817310439    8.95729310891487
C        -4.61216034442266    6.48024235053747    7.96150745152193
H        -3.61862994231008    6.73659287278465    7.64307328489214
C        -0.99138511658281    7.65075710353733    6.79601468853289
H        -1.94152030177184    8.04350783090810    6.43404370907360
H        -0.24419266612399    8.43787362009893    6.82309782360532
H        -1.16124287013091    7.27786705620770    7.80602404480596
Cl       -8.75635813511096    5.32978414513698    9.25970840656866
N        -1.27554681929070    5.45871509704866    5.76631664087644
N        -2.45878507567282    5.40778466667137    6.41640113523265
N        -4.42345947658608    4.29950872346402    6.86777184631820
H        -4.91376856213172    3.43382236629266    6.67933830637994
S        -2.92476293045448    2.98147437439120    5.24918739150380

