69
CSD_code = VATVOB | q = 0 | S = 0 | Stoichiometry = C24H42Si2Ti | MND = 12
Ti       -0.01942461244226    3.74861574627616    4.87925138499407
C         1.38880869924141    2.25389898740106    4.48867992765322
C        -0.53751829348075    4.92049076569835    6.82635669970724
C         0.21946233913174    3.77775305788346    7.21650372030817
C         1.53031827527894    3.98804637346810    6.71876100886915
C         1.57090073255307    5.21751746621086    6.04642067658969
C         0.30058088810049    5.82629149136566    6.14766854569027
C        -0.04572912127449    7.22340114427644    5.66812649899839
C        -1.42903997496574    7.61867615768159    6.20674085623417
C         0.94782881305244    8.21549624429652    6.29613301223333
Si       -0.17995458249257    2.61063626702315    8.63302714041088
C        -2.06221023158165    2.40095752917580    8.89820302947946
C         0.66058390040168    0.90882330940161    8.38727822109303
C         0.54115888763010    3.39217791050204   10.22807712704366
H         1.06301487377016    1.56276662937115    3.70846753235562
H         1.62538320609130    1.64355012951974    5.36658145498983
H         2.32345438727158    2.72196374808654    4.14723411925350
H        -1.55218696018675    5.10646833745661    7.15504907846753
H         2.39025518417524    3.36949704371946    6.94025228675484
H         2.47273820158509    5.66529176863738    5.64882185563839
H        -2.22238839919097    6.99324401316917    5.80783583171440
H        -1.65174778547549    8.65580934352237    5.97032153905314
H        -1.43175500305253    7.51868729099720    7.29095050073823
H         1.97935118520918    7.96950858126338    6.06768832884513
H         0.83585581656640    8.19282548972213    7.37882675200295
H         0.74506202972939    9.22910838570828    5.95611747975627
H        -2.54773931489301    1.92067232987889    8.05540389427387
H        -2.54604244779064    3.36016740958316    9.05552641449163
H        -2.25492743964185    1.79388474933484    9.77732467580314
H         0.38642068872259    0.44503241643783    7.44423230797847
H         0.38608419918569    0.22399984936513    9.18347383235279
H         1.74203892174182    1.00538849712422    8.40144225205764
H         0.37388865768920    2.75215555058627   11.08873865348153
H         0.08474874296990    4.35427112923944   10.44010645735017
H         1.61128118156914    3.55270295987707   10.14000276348564
C        -1.42736306872863    2.25352885607049    5.26940627552398
C         0.49834224455075    4.92044254764019    2.93202528315011
C        -0.25875015384786    3.77773624644756    2.54200365673994
C        -1.56950990533480    3.98805198306347    3.03999448537115
C        -1.60994194520871    5.21754965059002    3.71228665940101
C        -0.33960567827170    5.82626669535178    3.61085873800961
C         0.00683558711817    7.22336709623779    4.09034130336912
H        -1.10133267304317    1.56233220980441    6.04945414346501
H        -1.66388357817239    1.64327177166655    4.39142168895425
H        -2.36206797706148    2.72129399543386    5.61110092516203
H         1.51295387617234    5.10639251324996    2.60314235634890
Si        0.14039344068853    2.61065064380924    1.12537417039136
H        -2.42952200109373    3.36957188720112    2.81858356196641
H        -2.51170962096245    5.66538894880024    4.10996855561104
C         1.39019357586464    7.61850023173385    3.55174641643427
C        -0.98662251555587    8.21555902286251    3.46232774595132
C         2.02261852972778    2.40154632693766    0.85951965477537
C        -0.69950620042635    0.90858343660122    1.37153095980985
C        -0.58156683155641    3.39181036284432   -0.46948301507668
H         2.18345635218528    6.99295312602104    3.95064684647158
H         1.61303249782207    8.65560266192617    3.78818081587009
H         1.39289936064119    7.51853103030853    2.46753593099016
H        -2.01816751870381    7.96966883689517    3.69077619879269
H        -0.87465257412107    8.19285337395804    2.37963541431363
H        -0.78376610960556    9.22916311814317    3.80231763940513
H         2.50872310008561    1.92206188571136    1.70244564896535
H         2.50597347900934    3.36084981381866    0.70130596989346
H         2.21521119960341    1.79393682415048   -0.01925977312590
H        -0.42446608976768    0.44469943451781    2.31427467370051
H        -0.42548174758986    0.22396348826888    0.57499732323969
H        -1.78099838124924    1.00487942668316    1.35825496090245
H        -0.41433561043659    2.75182530789371   -1.33018022681115
H        -0.12561727837360    4.35407737687045   -0.68170682886319
H        -1.65172142955254    3.55191176522498   -0.38105401925234

