61
CSD_code = VATWIX | q = 0 | S = 0 | Stoichiometry = C32H25Cl2PZr | MND = 12
Zr        1.08828340823517    3.67479863088855    0.95893183419806
Cl        1.56778530464284    1.52788566733669    1.80890856741416
C        -0.65529468307656    5.11953776116375    2.04948291050324
H        -1.58802730079774    5.44454375833156    1.60360010695754
C         0.54101741070030    5.86468556018469    2.08327206508603
H         0.68885311496749    6.85687562129941    1.67930487731635
C         1.45421344642915    5.18860854470759    2.92999643850729
H         2.40634730917174    5.58720469122481    3.26261410412665
C         0.81158529848279    4.03157965439145    3.42228664982688
H         1.20512987741600    3.34850967626009    4.16530228139137
C        -0.48229289329237    3.97267735625726    2.85979280473427
H        -1.24872993757426    3.24828999321131    3.11649567728417
C        -0.94080618195911    3.38328999331081   -0.48594497226108
H        -1.97260624790805    3.47942249925579   -0.16588854006232
C        -0.15239831624851    4.40349235793972   -1.06947949859464
H        -0.47132002235743    5.41687235283020   -1.27771972632385
C         1.04929116722796    3.81473641511268   -1.52837351966788
H         1.79414972657564    4.30141400479091   -2.14667546235449
C         1.00235651814916    2.43426623932937   -1.22197585293735
H         1.73974968513360    1.69294065443248   -1.50822983035456
C        -0.22901850852858    2.17043368328417   -0.58787781721072
H        -0.59716038992552    1.19118559928271   -0.30670129548829
C         4.22682119097804    3.25917840498203    0.97968467099425
C         5.05951021338371    2.71558147789809   -0.00210842812117
H         4.92059826278580    3.01443570512031   -1.03391366706146
C         6.03086778067478    1.79205559952836    0.33600460455704
H         6.66240302435666    1.37276687647081   -0.43357003872139
C         6.19729955858935    1.40723354217855    1.65559034226098
H         6.95728031071873    0.68672105544874    1.91825399772978
C         5.38193102559324    1.94595907923285    2.63947672966808
H         5.51115071540087    1.64652394636996    3.66940997859390
C         4.39825976396971    2.85721129608776    2.30928952313291
H         3.75580022513829    3.27617091764484    3.07859542393721
C         3.17609265392874    4.21013099453206    0.61740842409884
C         3.48941270458229    5.39732595883441    0.06701617995915
C         2.52263732148868    6.33912041389655   -0.34491041170251
C         1.88779642828240    7.27956446026740   -0.77431602718407
C         1.08840475622942    8.33963586414849   -1.25003910456208
C        -0.26353557176193    8.43574926284901   -0.91267415372188
H        -0.70920590893826    7.68787659377458   -0.27112246833159
C        -1.02222742334609    9.48554247104422   -1.39226217326829
H        -2.06772881024612    9.55526980944048   -1.12897355536231
C        -0.44793350367501   10.44776279788563   -2.20797935214735
H        -1.04599072973052   11.26563040413547   -2.58132990643140
C         0.89434530361612   10.35941348172740   -2.54332749724703
H         1.34254781842988   11.10959859454189   -3.17825857735882
C         1.66272864169171    9.31454334188001   -2.07000998593458
H         2.70810687774820    9.23580860997811   -2.32982188058392
P         5.26327445886998    5.99115639279539   -0.03088349507876
Cl        5.16252106892887    7.16416386642697   -1.65361229835893
C         4.97131235401512    7.19897461272323    1.32785734787020
C         5.03655998234014    6.66376341605847    2.61225608073375
H         5.29024672468352    5.61862165576357    2.73595695765808
C         4.77800699491126    7.45911167247258    3.71161394866268
H         4.82738135981294    7.03897698686119    4.70585232090788
C         4.45776313379408    8.79673475147890    3.53750973376211
H         4.25340761442068    9.41915803244928    4.39597469610044
C         4.40485744287629    9.33345722538131    2.26284515081499
H         4.15996057774791   10.37662775570934    2.12530540839296
C         4.66162423872863    8.54051453092675    1.15759842485924
H         4.61870363351778    8.96797742625967    0.16719127443537

