21
CSD_code = VATYUK | q = 0 | S = 0 | Stoichiometry = C11H7O2Rh | MND = 7
Rh        2.00488892793249    4.25460705043755    3.25174619636582
O        -0.18681927990791    4.47829697942688    5.28629534305316
O         2.08546055451222    7.24506241455929    3.04459427299160
C         1.78797463460433    2.26637155025722    1.90910607669356
C         2.56297800366659    3.20787007235009    1.15589449793878
C         2.21811244192202    3.49886209731302   -0.16853810139840
C         1.14134993911604    2.84550093982221   -0.72655830839864
C         0.38573901174584    1.92651297191906    0.00803634481027
C         0.68595120985136    1.63626259536037    1.32079686429722
C         2.43300744900268    2.11725568183399    3.20486032907793
C         3.67883740948671    2.79477382871264    3.15095649554010
C         3.67404249650965    3.62304468927082    1.99875494205650
C         0.63931021566993    4.36214153686272    4.50193879472981
C         2.06793804654516    6.10144159935596    3.09648955640634
H         2.80213013386055    4.20323554929495   -0.74372489797084
H         0.87550850037564    3.03920051177074   -1.75515770815093
H        -0.44604369743404    1.43111860786487   -0.47040716198636
H         0.10172353104510    0.92021853630707    1.88109454527888
H         2.19452171838166    1.32234046738759    3.89965585583447
H         4.48755865323679    2.69776921853322    3.86208912402042
H         4.53473009987789    4.16221310135915    1.62447693881086

