67
CSD_code = VAVCUS | q = 0 | S = 0 | Stoichiometry = C22H30CdN8O4S2 | MND = 6
O         4.77866501148439   -3.06693151249045   -3.25816799636384
C         4.37667151189050   -2.47274665125391   -2.10533368886528
C         3.35556756608638   -1.52617215820028   -2.23322097014581
H         2.95864683204221   -1.33372787651184   -3.21719939183454
C         5.81460684423675   -4.01829886222496   -3.20562132101771
H         5.96232524270115   -4.34872426331336   -4.23248036479836
H         5.54092911371724   -4.87780237632627   -2.58543793675564
H         6.74430111470504   -3.57895616604148   -2.83000486683893
Cd        2.91887048421554   -0.00010321122001    5.45474122062710
S         0.74334179393254    2.17845026305653    2.86961194069297
O         1.99017864043227    0.55912431248315    1.19195199219932
N         2.57261431569560    0.25187834820025    3.29468035603273
N         3.26628425948740   -0.62555599521441    2.53231079203944
C         3.40379023413557   -1.12617901122000    0.13555479760176
C         1.80128682788267    0.96572716438747    2.47803040695868
C         2.91479605366320   -0.43030969472257    1.29832917829146
C         2.87596306202610   -0.86008816090716   -1.13053799006275
H         2.08956073862285   -0.12846661988333   -1.23384221514555
C         0.06082994205841    0.58610557503294    6.32559979069719
H        -0.87040712791082    1.16901358815336    6.29372410151838
H         0.23497719768072    0.25113660358593    7.35297296416856
C         4.90382085812402   -2.73981641528658   -0.84310570579978
H         5.69218879358772   -3.46420652543080   -0.71330535464241
C         4.41844281365246   -2.07239120076521    0.26341045565259
H         4.82277727179293   -2.27449428937465    1.24287078565247
C        -0.09306918072237   -0.62988260192451    5.41236713105114
H        -1.02353245200797   -1.16015657215440    5.66304181522666
H        -0.15766255661797   -0.27832637830548    4.37909165245068
N         1.21139461323305    1.37265288672029    5.89640330369325
H         1.42258740726268    2.07466197004182    6.59943001069783
H         0.98148179249061    1.84391697067334    5.00607018014271
N         1.08292976238423   -1.49297227895746    5.53323005279098
H         1.06451467741172   -2.21640470240235    4.81930123587235
H         1.07902517236238   -1.94987478738171    6.44363642382602
O         1.05887966200516    3.06723241808621   14.16756571469895
C         1.46098678225169    2.47307927550512   13.01471219245208
C         2.48197015818479    1.52640184095993   13.14268483153324
H         2.87902152800442    1.33414347461550   14.12666801126742
C         0.02308928787521    4.01878906111484   14.11486686359504
H        -0.12472366818780    4.34914552160326   15.14175218734641
H         0.29705712145083    4.87834120397479   13.49481939231461
H        -0.90666952952639    3.57964687980133   13.73906309800612
S         5.09402670482693   -2.17868053333295    8.04009171441754
O         3.84734789294721   -0.55909978344716    9.71763348375436
N         3.26514618577813   -0.25178410451180    7.61484946545154
N         2.57159497295870    0.62581321541626    8.37713997764606
C         2.43397055255677    1.12650636620890   10.77390652621301
C         4.03627585143767   -0.96575326878596    8.43157655259590
C         2.92293462978056    0.43052007894702    9.61116033898599
C         2.96160686920108    0.86030427739303   12.04003601783347
H         3.74809937677829    0.12875338942151   12.14338945837001
C         5.77685996944188   -0.58667402093304    4.58393446617210
H         6.70803874421383   -1.16967355587841    4.61584179960893
H         5.60273331718679   -0.25174422333573    3.55654642841689
C         0.93406933176029    2.74030984485146   11.75243728103681
H         0.14560753719295    3.46463009332293   11.62257683394766
C         1.41948450273070    2.07286322771524   10.64596422619213
H         1.01495129312520    2.27470333641979    9.66650759210378
C         5.93088263112692    0.62935011331681    5.49709577331746
H         6.86139668903343    1.15951995630140    5.24638377386461
H         5.99544811644044    0.27784662444856    6.53039032200334
N         4.62621468912179   -1.37308305093145    5.01317980199825
H         4.41501613216937   -2.07517699120483    4.31023912740010
H         4.85606305398155   -1.84425261896365    5.90358092838600
N         4.75496528759979    1.49254249685801    5.37618717377203
H         4.77345189475917    2.21602111239906    6.09006703425045
H         4.75890380006898    1.94937897181961    4.46574882543272

