50
CSD_code = VAVFAZ | q = 0 | S = 0 | Stoichiometry = C18H25ClHgO5 | MND = 2
Hg        4.74846131439475    4.19800586870537    3.67359375828308
Cl        5.66871521270835    5.94133392115254    4.88834627990625
O         1.44228511185047    2.54496056992654    2.68981212397693
O         2.83186174894953    5.50870054695833    2.60417181875512
O         2.67574345024280    6.05954496476772   -0.16706347223378
O         5.03680590374053    5.13159990668693    1.18020723897239
O         3.86419094581737    1.93562414065360   -0.04997099303476
C         3.76396093653373    2.73358678185113    2.23377744604088
H         3.80712272359691    1.69890855458475    2.58395719553591
C         2.36741847439383    3.19331859654102    2.24593531204267
C         2.15584986598048    4.61994369601878    1.69877459361935
C         2.77507272104835    4.70900605434384    0.27335006653374
C         4.28684631771439    4.29215585534939    0.30453424610954
C         4.45015374737763    2.85648379435382    0.86417549824498
C         1.95769756555007    6.56643210477995    2.96538422983780
H         2.01188131377817    7.35875953873137    2.20746253120762
H         2.29187678388888    6.95420156151148    3.92855689260484
C         0.58082175354352    5.91965788898237    2.98372846709707
H         0.46461286142848    5.30999911682692    3.88055769931957
H        -0.23026417503397    6.64168432429009    2.92872090767580
C         0.67272041271296    5.03243961876260    1.74424677946631
H         0.41612291738951    5.61489116316783    0.86359459958010
H         0.03403940715143    4.15414123880026    1.81217762742795
C         1.91464559489588    6.17431850777068   -1.35463334176748
H         2.58667999010315    6.37681214250647   -2.20098818918729
H         1.24904480411154    7.03605216736738   -1.24290424329684
C         1.15680478611841    4.85974970006024   -1.55221283289822
H         1.11750784169607    4.57883705323711   -2.60277553364590
H         0.13382457036294    4.94004340745709   -1.18682296223179
C         1.96167367427951    3.85546773514123   -0.72386503630853
H         2.63291422743276    3.28199309437420   -1.35666632164856
H         1.32652450917140    3.14889735156456   -0.19609468295516
C         5.67447833089480    6.14070050802021    0.41684220853303
H         6.50186123358366    6.52391632260672    1.01429173645785
H         4.96384399577328    6.94718653007966    0.20383470129515
C         6.10012616451522    5.43086404345816   -0.86491133575577
H         7.02791988634507    4.88255821987268   -0.69732293574855
H         6.24536598579842    6.12117121940759   -1.69249026107328
C         4.92425839218250    4.47800726358437   -1.09587500990035
H         5.22367183189704    3.52284163734080   -1.52170675689689
H         4.20792970948852    4.93631839016611   -1.77136328901600
C         4.48596309518361    0.66495884189243    0.08151544909540
H         4.65506882935596    0.28917194016720   -0.93200151477583
H         3.80861513970020   -0.02459159590870    0.59719610577421
C         5.79669588951044    0.86803538486399    0.85863540443436
H         6.64358756001395    0.41708186774339    0.34568779553848
H         5.72798881852116    0.43071026054834    1.85380620732301
C         5.91998419952858    2.38933447310927    0.94037705438667
H         6.47090020398549    2.76511213202595    0.08040121217713
H         6.42302342078998    2.72657159379374    1.84861552512258

