39
CSD_code = VAVGEF | q = 1 | S = 0 | Stoichiometry = C12H18N4O3ReS(1+) | MND = 6
Re        0.52476307594658    6.36644492435778    1.85676428713151
S         0.29296710311394    3.97638555458919    0.28032215266420
O         2.20414264239147    5.90187478521697    1.33725035739474
O         1.10597697256939    7.77510826905799    3.17412093320665
O        -1.11824451897131    6.34399964144256    2.01366925693053
N         0.68544798757560    4.73829110044173    3.23680543686050
N         0.67180785396313    2.75173843401406    4.15516029073352
N         0.59595091491149    8.05224438632270    0.62211168266944
N         0.85221799921958   10.22108478556468    0.45949775778047
C         0.93306302435454    4.88738648407115    4.56585934139857
H         1.08949131705571    5.86218034993592    4.97986485356698
C         0.92681385850823    3.65721159761925    5.14727181945586
H         1.07756867231759    3.36000535511585    6.16403862150900
C         0.53238105048925    3.44091756488791    3.00699935700190
C         0.21658293362550    2.81364657222636    1.69562566391667
H        -0.81560130537952    2.45290873521963    1.69241915017509
H         0.87922107500063    1.97278641807364    1.48092975631878
C         2.07594758136689    3.99433281355880   -0.10106020655111
H         2.43612107272559    2.97180896373258   -0.18902123119883
H         2.12790427780027    4.48158448390616   -1.07445458576843
C         2.89357636726867    4.79345466873588    0.93950583465700
H         3.10143110312267    4.15218793083850    1.81474644237700
H         3.85815009105053    5.07418608343981    0.48951093896225
C         0.54665207901704    1.32848969070449    4.31699694500004
H         0.66345947659023    1.07831430232643    5.36885749982329
H         1.31357445052204    0.80440578315524    3.74411136822563
H        -0.43469941919966    0.99166994407214    3.98073586705129
C         0.43908445333324    8.39403887604321   -0.68590931816109
H         0.21582367961046    7.66363996627616   -1.43615795143079
C         0.59556699389122    9.74147376530352   -0.79739911354580
H         0.54548610606817   10.38410104939883   -1.65156716327778
C         0.84442294416912    9.17219923871516    1.29219687408957
C         1.04957631019610    9.09550572542601    2.76601545491762
H         1.98917568141064    9.59455251462764    3.05629419720449
H         0.21673635602514    9.60961597995743    3.27966424553729
C         1.05703430901219   11.59657392690602    0.82438736023608
H         1.96637560472291   11.69999748406846    1.41727875555884
H         0.21373790675258   11.96384914032746    1.41203682229442
H         1.14851191784964   12.19760271032271   -0.07777975471552

