39
CSD_code = VAVJIN | q = 0 | S = 0 | Stoichiometry = C12H14CdN4O8 | MND = 8
Cd       11.92764175252405    2.98458325646590    3.68939372854122
N        12.05910586366422    2.02535409549292    1.67803985510324
C        11.29460919173716    1.04530909656471    1.21214157135556
C        11.36214909530961    0.62237657847513   -0.11356503803460
H        10.71738240746394   -0.17182090070057   -0.45770852967352
C        12.25766201978212    1.23555701551213   -0.96874451201834
H        12.32489418338661    0.93249931262255   -2.00288999815224
C        13.06714406277530    2.24619786683026   -0.46928730450876
H        13.78396834069703    2.74740929136127   -1.09922863592385
C        12.93217374520922    2.60828964139280    0.85846841575771
H        13.53354599428769    3.39830251142063    1.29088250000978
C        10.35101087781030    0.34256169338965    2.16591468127811
H         9.36712272917710    0.23993687597315    1.68539090433699
H        10.74894401212772   -0.66573925002613    2.33627818779940
O        10.23532585701569    0.92876275928114    3.43273090655316
H         9.68135223261327    1.72339877345942    3.36984656457232
N        13.63040531129370    4.60416018821532    4.67710576859871
O        12.44054269372918    4.68468776411265    4.99512931127876
O        13.96287859779977    3.68733424749131    3.88661285980728
O        14.46090634665735    5.34191713437445    5.12765312734750
N        11.79600902854823    2.02547272930724    5.70073900896542
C        12.56041539294416    1.04539375676754    6.16671926711808
C        12.49265095721659    0.62241051475658    7.49239602735947
H        13.13733907196587   -0.17181635463233    7.83661725181070
C        11.59701969226239    1.23559225611185    8.34745901939407
H        11.52956233650807    0.93244504580584    9.38156311845591
C        10.78765948392650    2.24628703347239    7.84792125345767
H        10.07074381124550    2.74748677930327    8.47776041927465
C        10.92284892211375    2.60842688608056    6.52020122522191
H        10.32158969634177    3.39849069383791    6.08772889662651
C        13.50418445134217    0.34273140319917    5.21306826569364
H        14.48809748459672    0.24028900575844    5.69364248517481
H        13.10640162993492   -0.66567099954782    5.04275991274352
O        13.61980035675663    0.92886217492688    3.94619831555208
H        14.17369981150125    1.72354736504914    4.00905966321561
N        10.22517344179135    4.60440496209390    2.70183074948034
O        11.41498665161691    4.68472545763466    2.38366761043913
O         9.89258561318545    3.68741944400993    3.49210224875262
O         9.39466685111745    5.34212389434636    2.25120089722929

