38
CSD_code = VAVLEK | q = 0 | S = 0 | Stoichiometry = C14H16N2O5W | MND = 6
W         5.11362045019434    7.37466049985365    8.62306207763238
N         6.41587063530782    7.11212973973304    3.25999560482368
H         6.88108113336563    7.01278909420994    2.36902947828465
C         3.77386383936734    6.02772824423200    8.00740910949726
O         2.99924536869160    5.26392856975302    7.64718340675243
C         6.34120148165205    5.91675462423089    9.22176582173726
N         8.47244238084071    7.45671413576466    4.26154554936039
H         8.89048189775193    7.53763567999046    3.34570466704979
O         7.05376465173252    5.09055657428085    9.57211478046276
O         7.27111423351702    9.48010383203586    9.51191615120942
C         6.47664642914439    8.71863351259957    9.19137621825734
C         3.89952378055021    8.83325074624080    7.99893920246683
O         3.19404937750001    9.66134074880167    7.63895579129696
C         4.27000048014040    7.42610221501197   10.42993254920238
O         3.78620923071779    7.45612819233456   11.46751556181820
C         6.00994615634502    7.32502111193060    6.71553115653268
C         6.54149803767913    7.30634506001776    5.61117389910058
C         7.14839639273995    7.29092079475769    4.36576738757532
C         4.37164593717999    7.29658341951087    1.97681140172452
H         4.57695127405060    8.35128679594633    1.80858655524138
H         3.29530737932625    7.15795043666965    2.00656765222625
H         4.76737366696990    6.72157275196820    1.14101942778743
C         4.73965244370417    5.34422717343465    3.53899697489910
H         5.17596297178742    5.05076223099316    4.49068311209299
H         5.17544675505571    4.74061098345256    2.74504682274027
H         3.67224378728183    5.15025778509250    3.57862434309841
C         4.98897746027589    6.83107186527352    3.28878256392247
H         4.57108424984595    7.40241239460049    4.12541735811091
C         9.32803805133854    7.75093652030232    5.40086118267771
H         8.93032825000869    7.18387163367566    6.25022158850079
C         9.27704319261318    9.23989238442161    5.74125136294191
H         8.25729979713974    9.52953905646250    5.98305657499822
H         9.63011006699786    9.83974901528150    4.90453474666087
H         9.90289741241840    9.44280523103335    6.60476934187398
C        10.74388769912992    7.29062622130424    5.08102439430636
H        10.75554750795126    6.23413390429693    4.82297216250027
H        11.38330628090728    7.43871659814571    5.94578704160187
H        11.15483985877884    7.86225022235600    4.25026697903418

