36
CSD_code = VAVLAG | q = 0 | S = 0 | Stoichiometry = C16H12N2O5W | MND = 6
W         3.55424036849118    6.01878232203255    2.56382817683341
N         6.49492817701278    4.11365413296789    6.85435853180603
O         4.71238695676077    8.90327577418188    3.04282682712158
C         4.28668020487242    7.85427352551512    2.87159100617520
C         4.88532702757629    5.74538754058955    1.10086636412984
N         8.02010160882193    4.02624623971008    5.11231724559898
H         8.73893608864113    3.89512441866801    5.81071670076965
O         5.62200300233888    5.59687878407797    0.23604464526453
C         2.84649735951729    4.17331345398968    2.26579660232201
O         2.44364618199509    3.11560312859850    2.08846412405336
C         2.22057663049529    6.29343398290730    4.02453189329930
O         1.43523783820513    6.45793790000517    4.84261694021978
O         1.51298295314708    7.15570974650855    0.46652273528141
C         2.25419163860518    6.73734660639716    1.23243572653090
C         4.94375694855813    5.25856996570239    3.95195645401974
C         5.80177894544124    4.79618645633168    4.69789327375966
C         6.77348232054716    4.30500963047658    5.55215265267611
C         5.20716592489824    4.47218050450141    7.39993297270822
H         5.33129670988258    5.19563343408043    8.20848299610801
H         4.70197469657990    3.58571871783967    7.78974092789290
H         4.59350277351426    4.91399554617222    6.61691448285989
C         7.45995165853797    3.56650439142070    7.77919584477055
H         7.89341085977126    2.63986178354817    7.39409606494523
H         6.95299624791100    3.33659648044335    8.71339487009130
H         8.26287017755465    4.27901602162123    7.99775516416844
C         8.51275186498513    4.08519070497935    3.79833786740769
C         7.71844655509626    3.86480270609082    2.67859399653192
H         6.66817770111082    3.65185345728685    2.78759398937595
C         8.28414887233564    3.92059954617517    1.41749413527019
H         7.65846188320638    3.75796739366602    0.55401495206198
C         9.63431677085071    4.18086042795675    1.25801346740705
H        10.06610579174665    4.22649009639139    0.27029360021254
C        10.43078229835072    4.37529142416335    2.37426294867649
H        11.48706206284496    4.56905838643759    2.26260678488913
C         9.87599933308901    4.32447291242600    3.63831369382288
H        10.50032356670220    4.47827245614816    4.50854134092650

