50
CSD_code = VAVNEM | q = 0 | S = 0 | Stoichiometry = C20H15AuF6NO4PS2 | MND = 2
Au        6.97804174964696    2.92779540329518   10.19043999160810
S         7.29224493362127    3.34043447509092    6.84789973921293
S         8.04796917035132    5.23849891527997    8.55974401313563
P         6.31910844430041    2.23179342631080   12.20255888479655
F         4.79330437696206    3.26012183428068    5.95178806604155
F         5.03473000474323    4.48348984224253    7.69418897026695
F         5.65301373022522    5.21182068813961    5.75073140352414
F        10.30479126572726    3.96106056690848    7.95484765291081
F        10.59246597462480    5.82527772866639    8.97291784140616
F        10.08595581896840    5.83370588376402    6.89136547442061
O         7.05413559284861    1.94298605211160    6.72614334356132
O         8.24636349148770    3.97677431194789    6.01034727204233
O         8.07036518249319    5.52191287489487    9.96428745773980
O         7.34664396531231    6.12314365030911    7.69939653871519
N         7.57844494275121    3.71697976073914    8.38186524642925
C         7.43597129640365    1.04061620778467   12.98736388910028
C         7.66549062166870   -0.14551533640963   12.29086798773579
H         7.15976006034916   -0.30883646967218   11.34761857745915
C         8.52731713583971   -1.09263397195323   12.80786729130908
H         8.70104177678475   -2.01368712787443   12.27242490148138
C         9.17416270124245   -0.85471225140681   14.01213304069027
H         9.85027073046975   -1.59386419398130   14.41445880537166
C         8.96147783120095    0.33096318761286   14.69496469517432
H         9.47325483652757    0.51732230172872   15.62726435552738
C         8.09531881455171    1.28438595380860   14.18593032179984
H         7.93192905838315    2.21270307265980   14.71470543573685
C         4.70502392386759    1.40436109277762   12.21836887974013
C         4.40836424757373    0.34358167787681   13.06830013624603
H         5.16736682423205   -0.04711932844613   13.73221476959294
C         3.14288333232279   -0.21588968731516   13.04871346661726
H         2.91262409171188   -1.04165018708885   13.70537072390841
C         2.17508079834920    0.27905083401111   12.18988591663344
H         1.19007995691388   -0.16241252409506   12.17832938261702
C         2.47022209475435    1.33460657869718   11.34069673993981
H         1.71720712070025    1.71498986799735   10.66754287779287
C         3.73337515713626    1.89572251304205   11.35060638456041
H         3.98421877016051    2.71257933589530   10.68547046847549
C         6.12578167757071    3.58563896384889   13.39085518826665
C         5.43620572041216    3.39159780001998   14.58662569158973
H         5.00205974495423    2.42564493090915   14.80697723941734
C         5.30750591614292    4.43829257033776   15.47988004261251
H         4.77277681109301    4.29120832153497   16.40651037538121
C         5.86110391088391    5.67533442931208   15.18454050625976
H         5.75583280665571    6.49069111770624   15.88443963673246
C         6.54172948112971    5.86864762456530   13.99344639544873
H         6.96743546546920    6.83237604500724   13.76020097238851
C         6.67576828950079    4.82819718389166   13.08943475323898
H         7.19663270863846    4.98059744172412   12.15281079249609
C         5.60528963030129    4.14928580362626    6.52968001075691
C         9.86315801203146    5.21453080789582    8.03347745209430

