59
CSD_code = VAVQUE | q = 0 | S = 0 | Stoichiometry = C21H31ClHgO5 | MND = 2
Hg       -7.65163506598003   -6.76898357620507   -1.09267243057328
Cl       -9.29770872283477   -7.55026706713108    0.50544465827254
O        -4.28150388462651   -5.65629858909706   -0.63293687498816
O        -2.69011149502430   -4.38836690234107   -2.51325094343554
O        -3.99948192553363   -1.73574584787600   -2.59456894469746
O        -6.07800687921595   -1.61210350893028   -0.50042427835805
O        -8.05903317388235   -3.83716736523163   -0.97867528421846
C        -6.27465347238003   -5.10804156060783   -1.84575715691325
H        -6.65671479777861   -4.86920643002657   -2.83935584412471
C        -4.78791393789765   -5.39930427686286   -1.93986453264999
C        -4.47085356765591   -6.67399779926772   -2.76488899005029
H        -5.33169682377223   -7.00731707866988   -3.34540183286321
H        -3.63655915580468   -6.47804467528682   -3.43354923864981
C        -4.03366221060297   -7.69375687316673   -1.71457918836256
H        -4.89959756341043   -8.20860792053535   -1.28362032296380
H        -3.33728951660178   -8.43247211887908   -2.10327138887158
C        -3.41209940807160   -6.77099531601577   -0.67509307846489
H        -3.37129963848954   -7.18946839255070    0.33099257455532
H        -2.40895334697725   -6.45397681610310   -0.98802723510533
C        -4.09290747845345   -4.14731784532857   -2.57709086871904
C        -4.42204078753635   -4.00450183214043   -4.08735809959495
H        -5.19876305804257   -4.69529232973164   -4.40299697372259
H        -4.74803081454160   -2.98952440866745   -4.28724464170983
C        -3.09914334338365   -4.26374790888618   -4.81436441507042
H        -3.02521640390630   -5.29873679701197   -5.15064026752357
H        -2.96623370486691   -3.61172170814733   -5.67431134693740
C        -2.07875686743586   -3.97739883188830   -3.71752415618865
H        -1.14868688337778   -4.54086740386441   -3.81777432594648
H        -1.85081152426764   -2.90463344874311   -3.68651924703031
C        -4.42580871318769   -2.83791606686875   -1.78225061288115
C        -3.57186081632825   -2.74429613513169   -0.49637370302025
H        -4.16228747242164   -2.26915427079248    0.28433996446628
H        -3.23919269487024   -3.72586798429459   -0.17789350367481
C        -2.41692113936527   -1.82109576040735   -0.87527568312938
H        -2.02040590763516   -1.27584594627272   -0.02173792308982
H        -1.61310587026898   -2.38506503432531   -1.34659387601930
C        -3.10132874672506   -0.90821290210570   -1.88213456273879
H        -3.65558899337250   -0.11294003904986   -1.36379374049954
H        -2.42585656765612   -0.45397877704075   -2.61114822616411
C        -5.95911070203955   -2.64398882617986   -1.47815302101885
C        -6.73986391743001   -2.12505676682292   -2.70771930458057
H        -6.04287769977422   -1.65670014176839   -3.39979287038434
H        -7.29043435745496   -2.91466439296408   -3.20861954377204
C        -7.66471819932474   -1.05586415674326   -2.13418696349020
H        -7.92682571814585   -0.29282160647488   -2.86389087390655
H        -8.57430152480661   -1.51074845847417   -1.74664380108731
C        -6.80596973311207   -0.50902351287028   -1.00360317480264
H        -6.10860667611538    0.25195053508817   -1.38362625300122
H        -7.37857185431811   -0.08248440555932   -0.17628978002445
C        -6.63068591646792   -3.95293600105560   -0.91786369673388
C        -6.34440483430483   -4.19339785506846    0.57368263533307
H        -6.44457019179340   -5.26560487868349    0.78582808741532
H        -5.35187803299482   -3.88185415524432    0.86635904953079
C        -7.45226160006600   -3.42478307339601    1.28458181460345
H        -7.69456228165686   -3.85570548128912    2.25329044228634
H        -7.16106564602957   -2.38461869927596    1.41600135809024
C        -8.61512287795129   -3.54503719943651    0.30356485773336
H        -9.28742207197833   -4.36671694357051    0.57612969082602
H        -9.20212379006262   -2.62350643463479    0.23253788865581

