60
CSD_code = VAVRES | q = 0 | S = 0 | Stoichiometry = C19H37FNiP2 | MND = 4
Ni        4.12341649525778    3.50938476757315    4.10097249610335
P         5.41562466560885    2.40269892503034    2.75774082137130
P         2.48438996418166    4.58897606979079    5.04524531996745
F         5.75680523534885    4.36451554508661    5.52456627076633
C         3.48609723396709    1.80032407291879    4.88254726825331
H         2.39466869441607    1.73902961378690    4.97853695421671
H         3.91043918555823    1.75107938607455    5.89489787907729
H         3.78478609793464    0.87930132301198    4.36960461503160
C         4.88435750508961    5.17208079955770    3.50877546554681
C         5.79277905844124    5.35717553841338    4.54839022679653
C         6.67537255214353    6.40465019809741    4.67249258022626
H         7.34970869917321    6.46909100490043    5.51337880659344
C         6.65711919097464    7.36716176747279    3.67272897849650
H         7.33177335349994    8.20912919543481    3.72450185710819
C         5.77312650673301    7.24388870632863    2.61523387765792
H         5.76103812967852    7.99882471953662    1.84045740444237
C         4.90172424462505    6.16595097845931    2.53180247753906
H         4.22514670663863    6.10838197546474    1.68739131591325
C         6.56492805454791    3.37016585996398    1.66834039758569
H         5.91725960119200    3.97019070964662    1.02248795084569
H         7.09691584968893    4.07450243654066    2.31347370817842
C         7.56596293922371    2.59281832514913    0.82370020004160
H         8.32009405750502    2.11390600720739    1.44268534322915
H         8.07621205049837    3.27817112658427    0.14855203719561
H         7.07986618887047    1.83029292312010    0.21902298304510
C         6.53632936114675    1.09755802637212    3.42849409576396
H         5.91195515512227    0.35748257538732    3.93243867257638
H         7.04369231517543    0.60209234523473    2.59696466940838
C         7.53181671783200    1.67977105599846    4.42263780825862
H         8.18395164185793    2.40843472820412    3.94504546349495
H         8.15054593797295    0.89441604837432    4.85408093591848
H         6.99585384189506    2.17836577214215    5.22721882517431
C         4.44002600492121    1.43448124966419    1.52389283700224
H         5.06188795986829    1.17809068237238    0.66375795986075
H         4.12224133882540    0.50699347816290    2.00485388487284
C         3.21974070098963    2.24078603753137    1.10245297553937
H         2.68018004046514    2.55311545092103    2.00036388628763
H         2.55132662638695    1.65397816212030    0.47476020087511
H         3.51801735540679    3.13166347920915    0.55254848649888
C         2.70109269310784    6.41428597671704    5.28302167702613
H         3.61492136759478    6.54005072160656    5.87090192490249
H         2.91193730425596    6.82896701949792    4.29398801736091
C         1.55595543206543    7.17893688565017    5.93347444207197
H         0.62873672315925    7.05360010980575    5.37956749197211
H         1.79512331681634    8.24134657858102    5.94872993710888
H         1.39287612631137    6.86108033460640    6.95995800012763
C         1.90385464681759    4.07084507404393    6.72269234751742
H         1.01433624583966    4.64617554322237    6.99071189093142
H         1.61472162930779    3.02048930385937    6.65772078687256
C         3.00129981562976    4.23778536543324    7.76582420408420
H         3.91716851758580    3.76294087324950    7.41906265646976
H         2.70917883436851    3.78039988392610    8.70973285834735
H         3.21299225004791    5.28928687463876    7.94713934474069
C         0.89741663613896    4.48578943162968    4.10613351977765
H         0.67847738480707    3.42160620306484    3.98419160892774
H         0.08790353242994    4.92876414328237    4.69136447884693
C         1.01722145658126    5.14861010358137    2.74020673185798
H         1.05811907085579    6.23121094056439    2.83551925747360
H         0.16834957385047    4.89205245277247    2.10857478369476
H         1.93054018372678    4.81465511353339    2.24964610304669

