60
CSD_code = VAVROC | q = 0 | S = 0 | Stoichiometry = C19H37FNiP2 | MND = 4
C        -0.62713778204809    9.20015077133218    1.56598655646167
H        -0.23455047102077    9.93339648882802    2.27514626371967
H         0.14746563615915    9.04310409422008    0.81197107514326
C        -1.51690169659359    6.47543892818950    1.24238414753742
H        -1.87122576022204    5.59543548854377    1.78477086995028
H        -2.37731003998917    6.94895057456734    0.76511076283723
C        -2.24328562718006    7.91902445733608    3.56890353825197
H        -3.09317438438303    8.20531340072483    2.94527264440609
H        -2.48663910840419    6.97278911623481    4.05761452665233
C         3.41713329886676    6.85057425621712    5.61192824400966
H         4.01178862245916    6.29128541626886    6.33681288594637
H         4.07839264396086    7.53950434315686    5.08302488868808
C         2.35428149569156    4.19427340627923    5.37713509772041
H         1.69747778780965    4.51483876000521    6.19107412330159
H         1.76819328189725    3.51040179543192    4.75863911255942
C         4.11521597584948    5.21728222947389    3.34247849457515
H         4.51782086589686    6.11917157065592    2.87819887043801
H         4.88902000803334    4.78990522582469    3.98343898185940
C        -1.88297713794897    9.75205546925045    0.90467162143056
H        -2.28948262477877    9.05729231920700    0.17423052510016
H        -1.63845249770240   10.67631478704877    0.38290334939506
H        -2.65451290411151    9.97803482556670    1.63607497317978
C        -0.46835605417463    6.06703836860921    0.21554332099444
H        -0.20896413439922    6.90247393018933   -0.43146965086081
H        -0.82498370330831    5.24840568513741   -0.40711693822142
H         0.43770808071576    5.74607540514707    0.73311449719199
C         2.30115168366871    7.62949886274904    6.29718685815356
H         1.64138677474580    8.04745131553622    5.52856536043890
H         2.69567768000601    8.44372084307563    6.90235724842681
H         1.71159023205792    6.97633407266967    6.93756608434902
C         3.56795686653056    3.46648947389637    5.94020935570716
H         4.14280967646596    2.98603514285098    5.15266967084134
H         3.23509824068249    2.69118133464973    6.62836152607870
H         4.22579925178862    4.13768183445400    6.48800353337340
C        -1.94924330657041    8.98347980998164    4.61814478362105
H        -1.02728532283928    8.73972941359856    5.14432151462634
H        -2.75716719937425    9.04344735327621    5.34516561549502
H        -1.82824824708293    9.96305440881448    4.16068105433468
C         3.68015392919334    4.23915560918164    2.25942015660346
H         3.30880656154673    3.31338657211780    2.69417761645426
H         4.50696853375254    4.00061853795577    1.59265533582280
H         2.87851694261690    4.68564666375785    1.67168858079913
Ni        0.99638132818513    6.70354228243878    3.40068767113687
P        -0.77294226536866    7.60139201319699    2.49933544008659
P         2.66273885306972    5.71752519639829    4.36433992880531
C        -0.19716425383403    5.35138166402075    4.13047845536179
C        -0.83371445643263    5.48541163368403    5.37018642591444
H        -0.69353910618692    6.38723842970031    5.95524211021039
C         2.24322266017147    8.05265735278473    2.60666732694103
H         3.29694899749718    8.01133327189429    2.90400119359113
H         1.90903146544182    9.07550377972351    2.82413926360199
H         2.22731177688168    7.93097486213668    1.51333026772605
F        -2.64630365041361    2.36235645048173    5.66427351452837
C        -0.41580123970246    4.15155531388639    3.44073401778268
H         0.06888043191857    3.98096574745244    2.48523228330428
C        -1.65144365599997    4.49588975041413    5.89211000232002
H        -2.13705446952114    4.61416403388333    6.84981388876254
C        -1.84282122280821    3.33957981220757    5.16318108683917
C        -1.23271986836854    3.14986034130400    3.93947873533202
H        -1.39512739275465    2.23152570241299    3.39415131039780

