59
CSD_code = VAVRAN | q = 0 | S = 0 | Stoichiometry = C32H19N7Ni | MND = 4
Ni       13.61508643240531   -0.24265916924877    4.21234509558644
N        12.95150676914995    0.81041973582739    5.73712944943377
N        14.39778960752084   -1.53893791934790    5.45777196350244
N        14.24052970839373   -1.30604993523003    2.68910645160091
N        12.87315723471358    1.06902980399032    2.96713034555180
N        10.73021522305029    3.52149381008807    4.56492415182971
N        10.10846992817077    4.08775486468451    5.40120513583893
N         9.43090524763389    4.75934376657449    5.99909834121162
C        12.06542208053661    1.85315899037046    5.71102689201201
C        11.76002578226957    2.29117382225413    7.03598022685273
H        11.08777758318482    3.08109335742575    7.30772911759404
C        12.50042298516695    1.52771983985752    7.87447490371992
H        12.53575044009562    1.56398880718296    8.94514148036451
C        13.22966913495184    0.60774601050593    7.05972815073253
C        14.03691145332875   -0.39300193700971    7.59665883854101
C        14.55756794641261   -1.40965926348389    6.81080155533345
C        15.27996349378316   -2.53158266560515    7.34183137526926
H        15.56209111108176   -2.64616344983908    8.36982118039495
C        15.50370303030140   -3.37163341063562    6.30823362084213
H        16.00455629145032   -4.32032177750989    6.30856112406020
C        14.96468063211550   -2.73952441198602    5.14025087420384
C        15.07682855100391   -3.27609949011434    3.87323853736381
H        15.50434619397742   -4.26106474670395    3.76684594869764
C        14.74591991512470   -2.57451930934570    2.73195263734500
C        15.00688816254891   -3.06134467623275    1.40945567771366
H        15.39204140269353   -4.03743045193294    1.18651181506699
C        14.69427547482783   -2.05903599332982    0.55946928066308
H        14.75458685746450   -2.04499016751062   -0.51110843505417
C        14.21416812426056   -0.97131301660170    1.36403997408698
C        13.73404158931555    0.21586816353726    0.82747977867367
C        13.08786046126669    1.16147844659896    1.61730584733268
C        12.46545513254700    2.33709532535394    1.08907657429994
H        12.52074358772052    2.65525317529422    0.06706127828648
C        11.81484164827812    2.92769966955350    2.11844107376464
H        11.22563939331402    3.82333527741029    2.11678343981474
C        12.08417843135219    2.13576995920479    3.27643836235711
C        11.61139529905977    2.47801715484798    4.54598183956428
C        14.27808520400812   -0.39856700928114    9.05358249337591
C        13.78119773262223   -1.42243080386524    9.85411260162946
H        13.20311919557167   -2.21548965784292    9.40214185826987
C        14.00894375290548   -1.41536279268207   11.21835360544427
H        13.61474318602352   -2.21226980266048   11.83188457887694
C        14.73827220220549   -0.39022026780312   11.79731977299262
H        14.91768177077186   -0.38774671430025   12.86219298932731
C        15.23383660359991    0.63336320505418   11.00686393299208
H        15.80217492170401    1.43561896005353   11.45418636456630
C        15.00181387483065    0.63315857009449    9.64344057962194
H        15.38866483980049    1.42922629250489    9.02388240522199
C        13.85470462832080    0.43853342798631   -0.62707957576812
C        12.72296331937484    0.51571721429609   -1.43295108404850
H        11.74559323078346    0.40399754856060   -0.98625355183403
C        12.84834982871405    0.71424158900647   -2.79596603367651
H        11.96376519608045    0.76784381471853   -3.41363201449663
C        14.10281028590034    0.84246623919167   -3.36869845911979
H        14.19876348503749    1.00005960173446   -4.43271750800812
C        15.23368017545313    0.76484320298526   -2.57298868381488
H        16.21420167732894    0.86330648106687   -3.01534654376061
C        15.11214572070919    0.55939917184128   -1.21071448973765
H        15.99237682778115    0.50040354044013   -0.58703714250987

