60
CSD_code = VAVRUI | q = 0 | S = 0 | Stoichiometry = C19H36F2NiP2 | MND = 4
Ni        3.44908660252284    5.45456593870852    2.98402417269333
P         5.57414689576296    5.59252769153938    2.50889142784537
P         1.43115976346743    5.68724649718617    3.75352858651251
F         2.92187198383073    4.21525344115735    1.07978977665980
F         2.12329770256224    4.61539685121241   -1.57266501026574
C         3.83924526149100    4.17933711392634    4.44727934521301
H         4.80522061327128    4.35245734004102    4.93713841906531
H         3.87599518793484    3.18565650839168    3.98057070960483
H         3.10574682918748    4.12418798280260    5.25887846757450
C         3.01972993643986    6.52634022474756    1.44377871937587
C         2.75642153505659    5.48536590530654    0.55485007372363
C         2.36543916759335    5.66858794282513   -0.75484622609533
C         2.22081032233666    6.95856933634525   -1.23841666687012
H         1.91499622902369    7.10892775682908   -2.26141496792489
C         2.47649635670954    8.02151070278702   -0.39002523519448
H         2.36763396738528    9.03025895080906   -0.76306188643401
C         2.86753059543700    7.81191830228734    0.92406219898432
H         3.05917539403598    8.67241452884992    1.55257764969787
C         6.01407713012131    6.19161199945094    0.81124201677791
H         5.52625306769478    5.50994239358140    0.10872388046612
H         5.52526154106074    7.16197691159146    0.69173445562678
C         7.49413636039976    6.31049586384531    0.47257954060129
H         8.01033806500231    6.96708545996373    1.16877465661183
H         7.60140274293356    6.73129140146753   -0.52612361974768
H         7.98616222764572    5.34145743883955    0.47834482341197
C         6.49596333198653    6.75612637177873    3.60725418040061
H         6.32191572996236    6.41904462547695    4.63259754871696
H         7.56802230043933    6.68466944722213    3.40897215101130
C         5.99824545983984    8.18594849753957    3.44195368538749
H         6.31737619420139    8.60142808713310    2.48894567488305
H         6.37894072507599    8.82336708777811    4.23815182803746
H         4.90957633627451    8.20113423768867    3.47348525944633
C         6.63788631125702    4.08792458485130    2.65464465703389
H         7.67874528457089    4.36665596913006    2.47322587482840
H         6.56280416379822    3.73121091724294    3.68342164877454
C         6.18770113048298    2.99283805559979    1.69612015541482
H         5.11954275064909    2.81675485390187    1.80799711574746
H         6.71532226907650    2.06244907735284    1.89938864136782
H         6.37774296312847    3.27360488205960    0.66257384695956
C         0.24819598261163    6.71627970834139    2.76180896454900
H         0.68237835956963    7.72012322897275    2.73903907388289
H         0.28132719001618    6.34058368157352    1.73572620080870
C        -1.19831646080880    6.78488314142252    3.23407964910213
H        -1.70026482947156    5.82817988119693    3.11644056293608
H        -1.73707985264556    7.51868824282715    2.63663606641479
H        -1.26989302464594    7.08724158405064    4.27653947559902
C         1.43663971627641    6.56281143559857    5.37941466502044
H         0.45688765966158    7.00090442724429    5.57968756884612
H         1.64583439260521    5.82381345769261    6.15571802340696
C         2.52600775606946    7.62622971371776    5.37183944032127
H         3.46721707651266    7.16019168405624    5.06694672479505
H         2.65516079324869    8.07193411375864    6.35639732735999
H         2.28743255275709    8.41653917460587    4.66239364778425
C         0.41130625374571    4.19962053840915    4.14502331391441
H         0.95588749313918    3.61480076490175    4.88869309364341
H        -0.53075844076375    4.52430591204083    4.59403115664662
C         0.17412380666442    3.34735629194861    2.90551574262902
H        -0.38847807621809    3.89536866084571    2.15235689927099
H        -0.38016925910314    2.44522709124390    3.15903392912674
H         1.12814048135994    3.05517608584107    2.47203089849184

