50
CSD_code = VAVSAM | q = 0 | S = 0 | Stoichiometry = C18H25ClHgO5 | MND = 2
Hg       19.17511727119645   -4.76947198149516    3.91385245576703
Cl       20.79945199899753   -6.29365516543730    4.66142948763451
O        16.82475178279731   -1.61991213362625    4.06393348875238
O        18.65905226180216    0.35002393242870    4.10892911094879
O        19.27285437027089   -0.14434264976694    1.51452089591384
O        21.04986717529724   -2.98368216220392    2.92936200292767
O        19.40449901595763   -4.31790603130983    1.15568629394695
C        18.12257339750110   -3.10454274261680    2.77825347694950
H        17.15095739737738   -3.51429067250834    2.48459562696891
C        17.90243027962541   -1.87973257164744    3.57195870992331
C        19.11084062190894   -0.96014444935428    3.80009820494455
C        19.99502683156717   -0.83367411310626    2.52454518901711
C        20.34633454771822   -2.23187048548443    1.93559515191468
C        19.03546766451906   -2.98279560845858    1.56004862614153
C        19.85911053321110   -1.45566530901972    5.07589420890070
H        19.40547056795726   -2.38352811410653    5.44204334527839
H        20.90611530236207   -1.65294897174042    4.86640094810499
C        19.66361407975719   -0.33173948537817    6.09876132307549
H        19.44699197173838   -0.70919951683697    7.09487172647065
H        20.54998300447717    0.30219054304125    6.15035728871199
C        18.48800681056971    0.44683305024739    5.50631289292882
H        17.53279136276276   -0.00088396169851    5.80307984796570
H        18.48821778969771    1.50819498382239    5.75864766196537
C        21.23145247442661    0.04535856087011    2.84118939721557
H        21.12339380448782    0.46362837754782    3.83905330037752
H        22.15413421630611   -0.52476416340903    2.80071503220712
C        21.17612892037829    1.17994378898607    1.81703569913532
H        21.52176534613097    2.12574532552982    2.22722930193534
H        21.76894176739059    0.94808265740283    0.93094531278296
C        19.68806562169098    1.20962171363904    1.47645840269038
H        19.12992691118614    1.78902618109498    2.21943977729707
H        19.46791039750078    1.58276544570185    0.47499711681843
C        21.29758187741350   -2.14792240636684    0.72009921395524
H        20.92737526764974   -2.79460762009866   -0.07268804352758
H        21.36323363047787   -1.13413424189975    0.33751155770415
C        22.63369664786450   -2.69259503208439    1.22407046522564
H        23.18230153230423   -3.22408760237973    0.44991767385882
H        23.26976670762041   -1.89796833938674    1.61491795466832
C        22.18023514625159   -3.62227806729843    2.34177411042439
H        21.88999007494146   -4.59980943325232    1.93990123118265
H        22.91361383342614   -3.76176407389078    3.13729842654025
C        18.25342939366408   -2.39550018374360    0.37147750115365
H        17.48478180149608   -1.70885499174377    0.71298581869022
H        18.91775218790384   -1.85214232336225   -0.29643048225479
C        17.69415955667461   -3.63849666114403   -0.31756507326989
H        16.77786774033574   -3.97156763127445    0.16971738866590
H        17.49013677996061   -3.47781860179604   -1.37339741274804
C        18.81380698419312   -4.64956539730564   -0.09255767955582
H        18.46465079129292   -5.68313359022645   -0.04141026186888
H        19.57327454799522   -4.57641807385761   -0.88426369446512

