50
CSD_code = VAVSEQ | q = 0 | S = 0 | Stoichiometry = C18H25ClHgO5 | MND = 2
Hg        8.78271999634979    9.10347354418410   12.95395259386632
Cl       10.94171460661670    9.82164921900690   13.46589348270479
O         6.42562128426537    6.08014483446590   12.96413578070424
O         9.46936599046115    6.73439445493027   11.79161262084738
O         8.90687128837769    5.62610236246246    9.10674464639644
O         7.49451608874181    7.98689167460829    8.21967736721805
O         7.52921958490578   10.01728334831880   10.56763318000646
C         6.98067533655842    8.14920851088828   11.95531595033523
H         6.08359897365718    8.52789040870877   12.45333048284012
C         7.12206871271793    6.71300297724111   12.19530912781423
C         8.26030838647928    6.06527492267857   11.39745273960013
C         7.93320300002417    6.29953560479442    9.89623107226471
C         7.96833664047606    7.82734742143657    9.56019318594275
C         7.03493843895675    8.66232194519769   10.51173867810688
C         8.45828523565170    4.58107198203049   11.74920893205102
H         7.57730255416218    4.19104840551292   12.25527827213319
H         8.65628196131338    4.01049993506169   10.84452763774972
C         9.69839537322794    4.58275477478198   12.64073836175834
H         9.42497527320384    4.79459838166415   13.67514849082268
H        10.25301370857751    3.64894364297057   12.59675061873454
C        10.46741167750594    5.75800503534298   12.05373011498489
H        11.19590211104769    6.20814615261612   12.72831568548986
H        10.95514463470516    5.47367156890525   11.11226643606789
C         6.56882195387456    5.66753521714990    9.52510942419806
H         5.98646489944936    5.41634806080518   10.40774649288235
H         6.00942043977573    6.37024830335013    8.91281284481681
C         6.93002781179220    4.43978761588974    8.68870632886213
H         7.04384619816574    3.55619134484642    9.31639463505758
H         6.19161404321216    4.23043299945917    7.91871363340398
C         8.27121971153751    4.86312893887735    8.09953199217718
H         8.93389139901614    4.03068406876371    7.85473693523275
H         8.11506263295034    5.47718306077078    7.20293600893110
C         9.41900471237603    8.35821917441352    9.53560044498738
H         9.68905170119328    8.89546674031135   10.44522703703412
H        10.09100672989382    7.51121067141513    9.40789220253059
C         9.46469878506019    9.25314004669218    8.30245233367365
H         9.09053192659604   10.24767819268299    8.54207858610120
H        10.46422295522027    9.33650314977901    7.88307696273512
C         8.50358785187336    8.51904683571879    7.38012554567588
H         8.01287714527866    9.15890456711790    6.64279439013451
H         9.01994203879125    7.70142862895957    6.85784887128386
C         5.58678630799167    8.78703145508176    9.97862462106363
H         4.92338068954029    8.06841105036417   10.45321043001920
H         5.58229497953539    8.62787207742071    8.90148658726747
C         5.22168621106309   10.23776678454786   10.28035825430341
H         4.43978095497061   10.62092874204643    9.62940039502319
H         4.91177026909516   10.35683116874714   11.31925425969831
C         6.56483572873601   10.91722287166516   10.04973025472706
H         6.73652695304970   11.07087690390862    8.97476035468728
H         6.68087411197773   11.86846022140530   10.57150471505402

