42
CSD_code = VAWCEE | q = 1 | S = 0 | Stoichiometry = C21H13N3O4Re(1+) | MND = 6
Re        6.54219384359728    3.16158333535445   11.81200146148000
N         7.72956445076558    4.34692086711399   13.17463274661980
N         5.25589823485431    4.84034433678509   12.26079231161020
N         7.41324151797436    4.47580247855437   10.25635365844961
O         8.70879239685299    1.00792453217589   11.30406916685415
C         7.15146909430269    5.51491786725968   13.53399876170197
O         5.31772211886154    1.55861469892639   14.16085950238030
O         4.64329877403609    1.87735424873537    9.72967661442808
C         5.82891219183391    5.77663207011721   13.04927904796089
C         7.89105554385828    1.78317865562721   11.47791889281317
C         8.73597241691612    4.61094669556921   10.12856653798537
H         9.35502753852582    4.02925537684970   10.79973294251558
C         4.01693691778447    5.04537922751387   11.84769418473040
H         3.57089789708884    4.27013981516895   11.23803641425485
C         7.78348816135917    6.45278252765916   14.37742760016300
C         9.06732077687045    6.13757610856519   14.85313604725753
H         9.58295939377280    6.82964015935517   15.50084459984540
C         6.63482218847695    5.16892546334968    9.42033630554468
H         5.56515793516598    5.03298396242704    9.51742225698872
C         9.63511951389998    4.93950531256277   14.48996467171611
H        10.61214610259194    4.65424139719239   14.84433034086265
C         5.16995877720064    6.96587486432751   13.42589829688141
C         8.93135151753832    4.07277354159065   13.65181870153704
H         9.36218821239484    3.12002080141584   13.37234758776924
O         8.40220321470542    7.79590359119879    6.61411475927321
C         8.51514125243952    6.16609672746830    8.32741872412825
C         5.84566265515115    7.90007781250584   14.26306099333242
H         5.32647125139417    8.80653065212200   14.53310986244370
C         9.32747164252901    5.43311232957112    9.18771127820769
H        10.40256110591887    5.49791336933078    9.12574407040699
C         7.09839672588968    7.65492864530098   14.71765389757541
H         7.60262008685503    8.36143597039454   15.35856683370054
C         3.85958919222200    7.15931679424810   12.95744748107486
H         3.32191899913685    8.05547147344506   13.22602106255213
C         7.13490955769854    6.02116784293086    8.45611248044652
H         6.47757872997520    6.56817368590329    7.79810984302401
C         5.35396270451171    2.31876787821151   10.50347905812511
C         3.28440383516693    6.18870904635452   12.17202265096927
H         2.27683827256113    6.29243730017372   11.80385076956551
C         5.76867317018324    2.12087549374897   13.28084805169658
C         9.07568875218284    7.07968691413311    7.29699438080302
H        10.17641333495450    7.04357612876953    7.21699515033312

