94
CSD_code = VAWDAZ | q = 1 | S = 0 | Stoichiometry = C49H39CuN3P2(1+) | MND = 4
Cu       -2.20120736551183   -2.82923177542117   -4.30338884388304
P        -3.73975233497058   -4.49604494953504   -4.33108875223870
P        -1.18678597900236   -1.70485584053947   -2.61982603944875
N        -2.70337001811785   -1.71910740603351   -5.89453942707003
N        -0.63280888303304   -3.34502330123784   -5.57855706243694
C         0.49297474419082   -3.95914625087878   -5.25775888324446
H         0.49823196705220   -4.47575526103621   -4.30765968762416
C         1.60787450771717   -3.95255217335710   -6.07729554035815
H         2.50642922016622   -4.46778197606758   -5.78063748040098
C         1.53576239940931   -3.26898688469291   -7.28338561935073
H         2.38603595735007   -3.23596941394229   -7.94696884859358
C         0.35963005047709   -2.62470528159419   -7.62303818266422
H         0.28219345197868   -2.06790394214327   -8.54282151919096
C        -0.71482499975616   -2.68100899396270   -6.73741202249521
C        -1.99021814924871   -2.00517187516065   -6.97438114227243
C        -2.48342058443766   -1.67700406261728   -8.25919165118787
H        -1.92988317382802   -1.93320989824790   -9.15162350400863
N        -3.62537825280465   -1.07938601539124   -8.43883860214579
C        -4.35617344469320   -0.76486359895988   -7.34961690830269
C        -5.59179097454914   -0.10741456064975   -7.49096409957515
H        -5.92637212961094    0.13753097130863   -8.48605650955550
C        -6.32825345529272    0.20049368165891   -6.37939081476777
H        -7.27553843512065    0.70702129473703   -6.48303609146072
C        -5.86798666709048   -0.13202980466065   -5.09371426227619
H        -6.47027367283285    0.12402432627736   -4.23546738722502
C        -4.67142272819884   -0.77195821223141   -4.92329638787097
H        -4.29467388854408   -1.03954093585918   -3.94582434504170
C        -3.89133321637530   -1.10000618891108   -6.04585726880891
C         0.50435365895847   -1.43025948017346   -3.22633265697406
C         0.62661578658488   -0.66369192158139   -4.38572488839506
H        -0.25944785348786   -0.20722783494244   -4.81158663522075
C         1.86174585168983   -0.48856756043646   -4.97647718239447
H         1.95432614175394    0.11343621242161   -5.86845699549062
C         2.98298141025632   -1.08955980516539   -4.42292243374886
H         3.94904139774583   -0.95411550674950   -4.88467082688496
C         2.86374770039063   -1.86100093769188   -3.27952985778080
H         3.73745664686337   -2.32747073683163   -2.84975020319658
C         1.62739787864604   -2.03882147383769   -2.68101198479819
H         1.53680018035180   -2.64562176534795   -1.79100753042704
C        -0.95548867118906   -2.61172241483384   -1.06061545605495
C        -0.43696537965121   -2.00209019472521    0.07851013545422
H        -0.16280665852807   -0.95652504487965    0.05279009798216
C        -0.27711416540371   -2.74156196852476    1.23572583701137
H         0.12649142660093   -2.27193647151050    2.11998576035574
C        -0.63500165286286   -4.08124869537585    1.26473292304972
H        -0.51049381286164   -4.65092771099732    2.17289615553571
C        -1.15623531061286   -4.68874995456230    0.13376573053365
H        -1.44139884958711   -5.72988775468261    0.15759349452796
C        -1.31680226172406   -3.95418850976860   -1.02650734854099
H        -1.73683894805998   -4.40849617805416   -1.91772305361940
C        -1.69627407180742   -0.05939219702977   -2.02071703523264
C        -0.85202563974426    1.04536727991618   -2.00026681266013
H         0.16556167337106    0.96079884815582   -2.35430465217170
C        -1.31565031187204    2.25668915655862   -1.51732678262506
H        -0.65493784023417    3.11036912475431   -1.49803265837266
C        -2.61616473825671    2.37619334601983   -1.05648609240900
H        -2.97081774265575    3.32363563141080   -0.68090992381377
C        -3.46064296465822    1.27748511848699   -1.07486909913666
H        -4.47381613774146    1.36661425870233   -0.71255308698568
C        -3.00410846122460    0.06585276721557   -1.55657784356455
H        -3.65926544610892   -0.79556519148156   -1.56246554782789
C        -4.89192407019762   -4.15978137255739   -5.69288185263361
C        -4.41426124181675   -4.33362097899763   -6.99165488942104
H        -3.42708417106163   -4.75537067042976   -7.14094099969853
C        -5.19813668207393   -3.98066103540818   -8.07235586023285
H        -4.82931207119570   -4.12196239616010   -9.07715407289667
C        -6.45744644725150   -3.43826497357719   -7.86471078163208
H        -7.06820414428697   -3.16050319349609   -8.70956363795395
C        -6.92923428777814   -3.25074394994198   -6.57653271578335
H        -7.90918845989754   -2.82703448856407   -6.41654304693243
C        -6.14853373079355   -3.60207444930819   -5.48898813116127
H        -6.51401673955617   -3.45048714251592   -4.48289381192156
C        -3.24494078368160   -6.22199216716511   -4.64186865722363
C        -4.03307915739817   -7.11808313467583   -5.35834898033979
H        -4.96697835508798   -6.79289677081119   -5.79570506252604
C        -3.61044985225548   -8.42469897014596   -5.52292626841175
H        -4.22435303604897   -9.11875042220571   -6.07704855545503
C        -2.40640036390132   -8.84497552987360   -4.98067267384468
H        -2.08371631158828   -9.86636802738147   -5.11208170382069
C        -1.61442482719004   -7.95340003816977   -4.27557496580461
H        -0.67296545438856   -8.27805446844705   -3.85811197783541
C        -2.03129287687328   -6.64593387761001   -4.10917854899665
H        -1.41656705868489   -5.93980925747854   -3.56627190594377
C        -4.81539759678301   -4.65093456625489   -2.87035645459152
C        -5.76956051134778   -5.65612403742196   -2.74571008639359
H        -5.89673939447565   -6.38347914642286   -3.53442376867368
C        -6.55030912907117   -5.71912731553804   -1.60634068358301
H        -7.29212806403261   -6.49726571502931   -1.50835376882463
C        -6.38205303932028   -4.79146241993737   -0.58930521039628
H        -6.99298414916302   -4.85036717512669    0.29839961562612
C        -5.42896210510045   -3.79306523624450   -0.70817799617050
H        -5.29198678668246   -3.07453577890654    0.08624923905109
C        -4.64822026109696   -3.72496423629119   -1.84696096608316
H        -3.88713562018355   -2.95963116316563   -1.95654748213818

