119
CSD_code = VAWDIJ | q = 1 | S = 0 | Stoichiometry = C65H48CuN2OP2(1+) | MND = 4
C        13.66644431379059    2.84571848694759   10.67013954362530
C        13.60411962188078    1.50145257426840   10.34796045683734
C        12.55175042507175    1.06093533001775    9.55659963715316
C        11.62075651875079    1.98030649457872    9.10845526977814
C        11.76966742836061    3.32007257857938    9.46486399516335
C        10.84258808859384    4.37037721852156    9.02867658721859
C        10.10055535998762    4.26674126058583    7.85688620508859
C         9.27204011217557    5.31807630886297    7.50024642758620
C         9.20056141142665    6.42361772788066    8.32658403147658
C         9.96887514635406    6.46007770829781    9.49175635551444
C        13.55770368432069    7.30932359675515   14.00813273429449
C        12.46008686209391    8.01547055508755   14.49403988200307
C        12.63682284930005    9.21384544012939   15.15655831844932
C        13.91217346453480    9.73125593833664   15.32001093639838
C        15.00468397690394    9.04455176618391   14.81839443037338
C        14.83376480440689    7.83697245899393   14.16505468292524
C        12.18758163778349    4.81291098054649   14.30558633267339
C        12.08872175456039    5.09125942951424   15.66410558876972
C        11.29292717122448    4.29778847114760   16.47170121431990
C        10.60316250116233    3.22178596932290   15.93646051468389
C        10.70497342692369    2.93620399772711   14.58373516324272
C        11.48883884552221    3.73359344098709   13.77138344486742
C        14.80778577918649    4.88829446790989   13.30250129966917
C        15.11459149401648    3.92497950078101   14.25179696775459
C        16.35705820283826    3.31667863518018   14.22017596491268
C        17.29304143259452    3.66200628837704   13.25901470527955
C        17.01919302738492    4.62644705264065   12.29599715876089
C        15.76363644042805    5.22420929909778   12.33909807287829
C        18.02834814272853    5.11475196682848   11.26949784134023
C        18.75350629550584    6.33325895563972   11.87695803074480
C        19.05631462698099    4.03866045990699   10.91820199225395
C        17.27064973058874    5.60272997875173   10.04622172016196
C        17.79101757698891    5.62762163803099    8.75712985784622
C        17.07689783741177    6.17224338423591    7.70201735240465
C        15.81821810239425    6.71372491064538    7.89734155846772
C        15.27160164291566    6.69943605767212    9.17140826592817
C        16.00375316890475    6.14305728160545   10.22212372801944
C        14.02896605556035    8.80259940348023   10.59199107191689
C        13.06558799729995    9.27805258225370   11.47553761245152
C        13.26537051892153   10.46893324145035   12.14738930790136
C        14.44600084802711   11.17066955616330   11.96691662866798
C        15.42085069733330   10.68446336767400   11.11005900484583
C        15.21452707529813    9.50725046968035   10.41350337446657
C        12.92788007373248    7.87251462642235    8.13089499837718
C        12.68522023821390    9.21160793878732    7.85085360426915
C        12.08282553993041    9.56550679522954    6.65545110118520
C        11.71037209970530    8.59149053467270    5.74348706843163
C        11.94443995816215    7.25350463530010    6.02232707229929
C        12.54650604761298    6.89564190483825    7.21272777456427
Cu       12.48961265827209    5.70406458863668   10.94715114854652
P        13.63076071350052    7.27108609555054    9.69672115626919
O        15.35754255612518    6.15610959779620   11.42627818337547
P        13.21253681266272    5.75183017700643   13.12878933925458
N        10.78171676400325    5.45242371010661    9.81644384540368
N        12.77682767478957    3.72787849810971   10.24393078428477
C         9.87368753257414    7.62493184753195   10.38082577543583
C         9.86721813771350   10.03467520422147   10.57170950470609
C         9.96363779262349    8.89278949900257    9.80729561348774
C         9.62351887120873    7.49707236715144   11.76099037285952
C         9.12363335742554    6.14999621142753   13.71641546041903
C         9.43013312873367    6.23652998171103   12.40050428361223
C         9.48079207487233    8.67491314847954   12.54114121362594
C         9.62764709959542    9.95257341337893   11.94497627409392
C         9.51068942125538   11.11593028857827   12.75933656366974
C         9.24200389989331   11.02254026724567   14.08227843453434
C         9.00012074439386    7.31289669860065   14.52928420451370
C         9.18012689607921    8.58130473361557   13.92291699726582
C         9.06049151383732    9.75463212378703   14.70889798003846
C         8.77204105343813    9.63466929632535   16.07001051782406
C         8.60462738040601    8.39107510374418   16.65197121852366
C         8.71593164302356    7.24004006935261   15.89381903098732
H        14.45920471095559    3.23119757329314   11.29609310931889
H        14.35498276341907    0.81900349824358   10.71099198637530
H        12.45806910293078    0.01768946065154    9.29682378713928
H        10.78100814174416    1.66246490708298    8.51207651251890
H        10.18804107336215    3.39768761124747    7.22575114088211
H         8.68676729538069    5.27018788332169    6.59494051229072
H         8.54289728053031    7.24610383094715    8.09625970215223
H        11.47044595632598    7.60567680024658   14.36017259682153
H        11.77836436992039    9.74213374415406   15.54432526066621
H        14.05449326376917   10.66742487229889   15.83805668716438
H        15.99880090581875    9.44735612045725   14.94310470576741
H        15.69682272277478    7.30590090127306   13.79328919708397
H        12.63133520479906    5.92316320097432   16.08926207848950
H        11.21526356045327    4.51780726449607   17.52600757769720
H         9.98526002008756    2.60625489482712   16.57272769753316
H        10.16741637785253    2.09788981665669   14.16541242960187
H        11.56525657636571    3.53491357479151   12.70910693725473
H        14.38658883115597    3.65065012509548   14.99997700646766
H        16.60412683825436    2.56734114476747   14.95604816273981
H        18.25174438709988    3.17092396368983   13.27223464594154
H        19.47954276610272    6.72585134330830   11.16889838292657
H        19.27196566248184    6.04427430406857   12.78839396156020
H        18.04515735788452    7.12472191679057   12.11671302985333
H        19.77739654283974    4.42144168119188   10.20246163689712
H        19.61480956172044    3.74205917154626   11.80089780280461
H        18.57019409567431    3.16234396903821   10.49486214813202
H        18.77163876190436    5.22596956707201    8.56276427659655
H        17.51401440879007    6.18102943518007    6.71546426813274
H        15.26727483049466    7.14108597006391    7.07291876712779
H        12.16174868002847    8.70359434826699   11.62575878871792
H        12.50290579582025   10.84435935932793   12.81315609963033
H        14.60899686013693   12.09771588364732   12.49532168581220
H        16.34225619539611   11.23140456166171   10.97512264010198
H        15.96785569231920    9.13832638090670    9.73106607911808
H        12.96670131295057    9.97180594403594    8.56549386662569
H        11.90105367888363   10.60707513052233    6.43579626952375
H        11.23802495406542    8.87399450808613    4.81502173707107
H        11.65596777964532    6.49324606672003    5.31147614725597
H        12.73701230041450    5.85392313039821    7.44316574173522
H         9.96637000777510   11.00480038757206   10.10828099901073
H        10.14101963686439    8.97454724581395    8.74502566478503
H         8.96376344256119    5.18770887556986   14.18045689235371
H         9.50979066667097    5.33843824136056   11.80794432964891
H         9.63609554144350   12.07943855400973   12.28694394240892
H         9.15099491427043   11.91006120535123   14.69166319134603
H         8.67955830411324   10.52917194475506   16.66862599683249
H         8.38249276750469    8.31951458876936   17.70606156285402
H         8.58415031600751    6.27008950855691   16.35063956627436

