57
CSD_code = VAWJAH | q = 0 | S = 0 | Stoichiometry = C24H28N2NiO2 | MND = 4
Ni        7.31959472427429    2.02522883823332    5.77096750316942
N         6.41608657308600    3.83705815220455    5.76316986209327
N         8.35758145175000    0.29118018173755    5.81016423687119
O         7.11286160184425    1.92497327375281    7.56952462704923
O         7.47219572042094    2.09508942996800    3.96331637860965
C         6.59681153193715    1.09705320475413   10.23488157402479
H         6.21551283838529    0.41825304975245    9.48672345484136
C         6.72550085132810    0.68934436788132   11.54912001842975
H         6.45053738003240   -0.31700821363844   11.83019182312196
C         7.20787883340609    1.56879309418336   12.50412401821722
H         7.31256328653856    1.25052806889966   13.53103359618440
C         7.56004126093111    2.85727462329040   12.13743867516546
H         7.94518194056651    3.54274391831441   12.87854250323304
C         7.42513731355164    3.27017989842496   10.82451261584081
H         7.71977191954010    4.26947471020836   10.54076478303359
C         6.93725435447151    2.39350720518651    9.86021965778921
C         6.80268224184100    2.80502399693940    8.43633274334406
C         6.32830644053595    4.06972450065464    8.14779145552475
H         6.06347649340200    4.71659816521259    8.96721624352552
C         6.09157498645091    4.51999954970946    6.83510986624967
C         5.42721598658511    5.87625575464346    6.74632901310831
H         5.19007924295446    6.23983153381571    7.74181615341143
H         4.50466443228747    5.83070277748321    6.17242297209480
H         6.09524316665826    6.59602474595404    6.27370841424530
C         6.00414102980284    4.36643022768050    4.46813426567590
H         6.74684179515689    4.07830559703324    3.72232050677128
H         5.95139304529802    5.45776059255519    4.48152660013272
C         4.65134007189962    3.77477095595240    4.06702269705122
H         4.36610961686706    4.11990898019601    3.07584555069355
H         3.87297100755747    4.05633063343336    4.77384385503656
H         4.72725605527183    2.68814616551489    4.06218079877333
C         6.88617995109563    2.33514053235624    1.21188059615621
H         6.03040170390353    2.40506683890054    1.86516850044158
C         6.79858204398805    2.74013918818415   -0.10659116390877
H         5.86784172237390    3.13465076557447   -0.48805262614814
C         7.90211018829809    2.64193802762164   -0.93763449426247
H         7.83608569456761    2.96044355608234   -1.96769940701525
C         9.09368891674611    2.13910132711859   -0.44160519291407
H         9.95949675750971    2.07152735127041   -1.08444969142840
C         9.18273368858284    1.72661701363296    0.87535145752876
H        10.12087294201061    1.35571653636096    1.26003975923694
C         8.07587390463641    1.81492698532527    1.71441061360708
C         8.13718183757445    1.38726682611139    3.13833215667195
C         8.86806159765858    0.26239060445759    3.46711308880299
H         9.36693606679290   -0.27247355037065    2.67659308045562
C         8.94945872020247   -0.25392758547852    4.77393270868659
C         9.75630289435421   -1.52783251192432    4.89449802318808
H        10.28332479326641   -1.72231209061339    3.96500985884203
H         9.09771184668974   -2.37419335591078    5.08982760911397
H        10.48755867491498   -1.46613510108309    5.69601633477273
C         8.50907742806158   -0.36904278685014    7.10267291788876
H         8.62728034372094   -1.44921598038968    6.97964812098156
H         7.60130165675006   -0.19781048953441    7.68207566917476
C         9.68987371495048    0.20703709710301    7.88652264638345
H         9.75011684181860   -0.26091571907595    8.86621780045147
H         9.54539882647338    1.27675795657341    8.01816300801012
H        10.63024004842389    0.05095058462608    7.36196216196815

