95
CSD_code = VAWLIR | q = 1 | S = 0 | Stoichiometry = C35H56NOsP2(1+) | MND = 6
Os        9.95108239956669    7.03815750405737   10.45156809948253
H         8.81078565365929    7.37100769329804    9.48777072433588
H         9.60738151199570    8.55200743573795   10.27015312568463
P         8.21088230320727    7.02628162148720   12.25230298071507
P        11.47866837755666    7.27724835643639    8.55710678402610
N        11.19174711360312    5.64207221298805   11.36289510746719
C        10.82815522452048    4.34641690785288   11.25283153680447
C        11.52142072295727    3.33794452401808   11.92345588868925
H        11.19988984926162    2.31395927939157   11.84130517559807
C        12.61734592414850    3.66151326304349   12.69810413439536
H        13.15539595607501    2.89955341558327   13.23902050571619
C        13.02279346636172    4.98457106050825   12.75483159192194
H        13.87950610166036    5.27718766299655   13.33936368715609
C        12.29517787713839    5.95267891348273   12.06891695746922
C         9.69582885692226    4.11498590341681   10.36715917857615
C         9.11654389344707    5.24955756483499    9.76594941377034
C         8.05951735349809    5.04599965434576    8.88315012105021
H         7.57557154154290    5.89152294396887    8.41057538821344
C         7.58958119443709    3.77570940245588    8.59149606958338
H         6.77154919609709    3.65258204562351    7.89820401795761
C         8.16545622843951    2.66725063718769    9.19312401082881
H         7.79950108514530    1.67688300696548    8.97257944547118
C         9.21060817439716    2.83751084204233   10.07425925564566
H         9.65515767237367    1.96921757351863   10.53493343533466
C        12.74492425088957    7.35546321592609   12.10543620999142
C        11.82892170817993    8.40321624338626   12.19060692792099
H        10.76760207930839    8.19295454238748   12.32115014787970
C        12.26245342099804    9.71707233397923   12.26084063490114
H        11.54224927505414   10.51619667917804   12.35586646561580
C        13.61555957725261   10.00383931118252   12.22128332488646
H        13.95440501192199   11.02650718192080   12.27709202286320
C        14.53471718486625    8.97053507545487   12.11923409287276
H        15.59110693202633    9.18844645299670   12.08403159209318
C        14.10748472991326    7.65743661941481   12.06878244557217
H        14.83397822481017    6.86338188184656   11.98006877333994
C         8.74907225790001    7.49120751758753   14.00079583531685
H         9.18202463610326    8.49088046879046   13.84989975793689
C         7.63590963077306    7.62488233491235   15.03686296627547
H         7.20875590623848    6.65694572772571   15.28306986005265
H         6.84214181752611    8.29098221750050   14.71182662541615
H         8.05998680341033    8.03745936574303   15.95170439441481
C         9.85258593131958    6.59255277439557   14.56317730780747
H        10.40084945140550    7.12629670203699   15.33849364734043
H        10.56809758512049    6.28659508689200   13.80437917596374
H         9.43885350205403    5.69477496748541   15.01260168042420
C         7.14887587142549    5.47387057358697   12.35946237356722
H         7.10001266949866    5.14690005799758   11.31303086195141
C         5.71447241786542    5.63369901302561   12.86100493975239
H         5.25651558785490    4.64601080716078   12.89028204866682
H         5.11443837157486    6.25058166735811   12.19971062691606
H         5.67028993485628    6.04612030424197   13.86404738744490
C         7.85214084898333    4.37556132578452   13.15667423081028
H         7.71188145907906    4.52166499799874   14.22456660299777
H         8.91819015438026    4.34263256303832   12.94510330517996
H         7.43037495922726    3.40643154585814   12.89639442943296
C         6.91330746801095    8.34113505279367   11.93941763196534
H         6.13671649318561    8.18217177646880   12.69341955462768
C         7.45710594731437    9.75903148411971   12.09027384471619
H         8.32716809137651    9.90597827805021   11.45109412801703
H         7.72724135130047    9.99047324336132   13.11740961551686
H         6.69393532429628   10.47010905778437   11.78095421751384
C         6.28927254631697    8.17401608836228   10.55503077861980
H         5.36034825853189    8.73818311695087   10.50144744665815
H         6.07321787565096    7.13219218913535   10.33193526132765
H         6.96146371053925    8.55550706410670    9.79037794373374
C        12.64804929959509    8.75059194435002    8.68984729059043
H        13.25440935550146    8.50571933635182    9.57170137119884
C        11.93402310689748   10.07071847756366    8.97650990192558
H        12.64835756652604   10.79206790726004    9.36949784440931
H        11.13746384852489    9.94807044830284    9.70788862320861
H        11.51034503771010   10.48748430751169    8.06665651518221
C        13.58628270282233    8.96215156491981    7.50004769426439
H        13.05423969698395    9.38861826742020    6.65330839331627
H        14.08158402109691    8.05309153321465    7.17359716465693
H        14.35667633802721    9.67553118819446    7.78904196755176
C        10.66897868258627    7.58737716141014    6.88916028701627
H        11.45621012983909    8.05374832288870    6.28626081922364
C         9.49564941550009    8.55831328160758    7.00380285517729
H         9.24662133564706    8.94689233797899    6.01841714950570
H         9.71432797039704    9.39524788456590    7.65823677195596
H         8.62247208557510    8.04298078431212    7.39673293513072
C        10.19421964363367    6.33526789779302    6.15673630564900
H         9.48252120800353    5.77787426597496    6.76089816687879
H        11.01587557899722    5.68355167432864    5.87633408288613
H         9.68988483466437    6.63958390459057    5.24119569328599
C        12.69511939386217    5.91439520359025    8.09940850119072
H        12.98025326117433    6.14766306673439    7.06612955285111
C        13.95914982305412    5.87254474809136    8.95593823531265
H        13.71808794269424    5.64755403778236    9.99216315733912
H        14.52753186381574    6.79737505725108    8.92646360440095
H        14.60354168360043    5.07443082641844    8.58893532793996
C        12.05084540874908    4.52568430579655    8.12586608355793
H        12.55006454186996    3.87108277653260    7.41409426548754
H        10.99266678221917    4.55257131743471    7.88453699832902
H        12.15745050246786    4.07619983810665    9.11029468754036

