82
CSD_code = VAWNIQ | q = 0 | S = 0 | Stoichiometry = C26H46IMnN4Si4 | MND = 5
Mn        2.08479804082800   -0.74972236506193    3.12936265466702
I         1.00240849406374    1.39697685258283    3.89816322877172
Si       -1.26207276911774   -1.61085105759883    2.47268001433545
Si        3.84802302695444   -3.51282615549409    1.78078750025405
Si        2.12835982050215   -2.34094131994047    6.30128749260199
Si        4.98125639715265    1.14004292124855    3.12548655484428
N         0.48462823452934   -1.70290878563186    2.50053472957463
N         2.55699941964346   -2.43109591164242    2.19281252096372
N         2.71903716311120   -1.43498781069719    4.92834969121772
N         3.90690171140346   -0.13601244101938    3.64575354727710
C         1.27429448338513   -2.58408669360670    1.92314199307228
C         0.76476473043904   -3.65628753460098    1.03993020020321
C         0.62604757960609   -4.94879281217387    1.52874589565081
H         0.88407735169552   -5.15831157049967    2.55640024132570
C         0.14823326054636   -5.95080119253505    0.70364373953608
H         0.03550420330931   -6.95469379467189    1.08654506713610
C        -0.18531976954778   -5.66917582197343   -0.61108037335530
H        -0.55529105362641   -6.45368441565933   -1.25452025985915
C        -0.04667508672335   -4.38099857630364   -1.10000671464439
H        -0.30754437231214   -4.15960694269536   -2.12464132528383
C         0.42325038742818   -3.37391565425723   -0.27589726350730
H         0.52985839577021   -2.36597246996832   -0.65284916990582
C        -2.14307171393804   -3.25850512690844    2.08649175434828
H        -2.02759650253110   -3.56586600679028    1.05282600323578
H        -3.20479988681309   -3.13503227436978    2.27367849561002
H        -1.79110882313612   -4.07027799935047    2.71516302283536
C        -1.76636867837290   -1.08881891790126    4.24002630713863
H        -2.05221969163655   -0.04243946244177    4.27138820886702
H        -0.94762917741435   -1.21969306055500    4.94362332866769
H        -2.61058734417394   -1.67136349078408    4.59600691743364
C        -1.76727199239780   -0.31269061205570    1.16323983859074
H        -1.51915023201543   -0.62995447094463    0.15295973070693
H        -1.28142784058861    0.64242316473122    1.34490862470491
H        -2.83860242140220   -0.14315074263844    1.19768548511140
C         4.00630059425584   -4.83721064629301    3.15304288103578
H         3.29072629350246   -5.64415175683044    3.02421078067808
H         3.84126263816108   -4.39924550947057    4.13404775938896
H         4.99780042136194   -5.27968355303379    3.14651819985517
C         3.67832767914230   -4.35375067878421    0.07385616696497
H         3.36114936597449   -3.65755962398984   -0.69714751599555
H         2.96831365008074   -5.17380812745582    0.08529964945406
H         4.64039286877216   -4.75712222732497   -0.22616692947961
C         5.43858713759845   -2.46745497095796    1.72851086963121
H         5.40158322404067   -1.70893670715477    0.95155150030968
H         6.30230628651253   -3.09674344761287    1.53498892718840
H         5.59741935043533   -1.95959784186962    2.67305977777453
C         3.85156840640508   -0.77496162078138    4.80000274178188
C         4.89686998944609   -0.68597219992490    5.83926230171457
C         6.04543603795277   -1.46390819236350    5.77655747789953
H         6.17229334154684   -2.16694749973287    4.96620113412662
C         7.01478947873166   -1.34460027002268    6.75742327544024
H         7.90543331295712   -1.95388507153564    6.70948201149479
C         6.84515676981984   -0.44582936509726    7.79725207488079
H         7.60390588623489   -0.35421063733425    8.56026110678864
C         5.70161062889910    0.33389086817104    7.85857114327841
H         5.56881329353576    1.03584261007808    8.66842810437990
C         4.72655036281124    0.21517669826167    6.88424027734218
H         3.83222307448204    0.81874776171778    6.91856098036726
C         1.21651032010671   -1.13231758292855    7.47044516437484
H         1.91198643131421   -0.61273208971962    8.12375855087351
H         0.50683903039553   -1.65663171542477    8.10287248683311
H         0.66923850847418   -0.37710754271358    6.91132059857182
C         3.53169182157772   -3.23746570884811    7.23895545494824
H         4.21544046368773   -3.74973119567103    6.56862571775743
H         3.10610297950493   -3.98008177404044    7.90632130747862
H         4.11770246026553   -2.55188229480651    7.84182316392548
C         0.94061367020980   -3.63906816446763    5.55763278668694
H         1.44997670212952   -4.57504998630779    5.34510320128326
H         0.51409850770260   -3.27126991628455    4.62781061952304
H         0.12117852487182   -3.86029618935551    6.23407241954253
C         4.84485703909393    2.67247926215346    4.25724525927210
H         5.29439700192913    2.48135378554812    5.22777431995513
H         3.81245415747637    2.96730335475612    4.42105592609894
H         5.36455355838380    3.51783408545740    3.81659399045815
C         4.23792301864846    1.45618821780603    1.38763907629304
H         4.93332769275206    1.23535075389376    0.58389345488158
H         3.91296375539082    2.48455595782700    1.26863105103114
H         3.35598921165799    0.81376020236104    1.25188694306636
C         6.82347213945216    0.65009998180010    3.04703020541960
H         7.02904207178290   -0.12358487805640    2.31573932857203
H         7.18230487861004    0.30414283351525    4.01157158710559
H         7.40841061732498    1.52229516500605    2.77385500763138

