40
CSD_code = VAWPOY | q = 0 | S = 0 | Stoichiometry = C17H20Cl2Zr | MND = 12
Zr       -4.69140913516640   -2.35911264760633  -21.39773028334714
Cl       -3.28372828181080   -4.24506416315341  -21.57268200664689
Cl       -2.78051505888759   -1.08968918014040  -20.92730347711501
C        -6.61545500624666   -1.90738465935534  -19.91543107943905
C        -5.44384410765356   -1.68949709759003  -19.14789976218577
C        -4.80074808628772   -2.93597462528825  -18.97327931189597
C        -5.57742520407947   -3.92292664043140  -19.61660406973384
C        -6.69193100764520   -3.29174905177358  -20.20384244546426
C        -6.13196025511083   -1.11891697690569  -23.06439118468871
C        -6.46760296927488   -2.49151296657832  -23.16436746821297
C        -5.31702782758272   -3.18634643867968  -23.60860853790066
C        -4.26948552251486   -2.24362523867774  -23.80150821668318
C        -4.77570975877775   -0.96558248575583  -23.46961084644611
C        -4.23735575154224    0.41994846201957  -23.73088534686770
C        -5.41617759897279    1.40457763337555  -23.71245400630609
C        -6.62496097599944    0.78237655252850  -24.43595528681058
C        -6.97783441585311    0.12025126366527  -23.07939771624782
C        -6.23641814255452    1.30640260403327  -22.40084593192554
C        -5.48654844387526    1.06670869759294  -21.09853748391286
C        -7.14918133511724    2.51565034420874  -22.20069390382933
H        -7.39728260543502   -1.18246952293756  -20.10740987395538
H        -5.15347172139838   -0.76393975196084  -18.66377893652380
H        -3.91420644602970   -3.11477493755190  -18.37582358739787
H        -5.39129949154705   -4.98906892430834  -19.59262099913810
H        -7.53473900727681   -3.80131569677526  -20.65371015390454
H        -7.46352367493646   -2.90804242334836  -23.08138948577657
H        -5.26820618327087   -4.24060566536405  -23.85775393104274
H        -3.29029549673989   -2.46063313315371  -24.21599606036959
H        -3.48010366485351    0.71177894217763  -22.99536708084050
H        -3.76168750781577    0.44398950577795  -24.71635779631301
H        -5.09965207433530    2.40131923396090  -24.02053791730881
H        -7.35246540901108    1.51739063923394  -24.76699322427613
H        -6.40404932818475    0.09858804251977  -25.25258107551480
H        -8.02685895829249   -0.04726336330797  -22.83100363812241
H        -4.91341077183294    0.13250232587206  -21.11177441422712
H        -6.18943507952343    1.04557821396766  -20.26599100680139
H        -4.79278228334332    1.88857054975475  -20.92705521160596
H        -7.69301917045089    2.77718476170576  -23.10257019283546
H        -7.87539660967456    2.31109410067350  -21.41594030880002
H        -6.55819563109298    3.37848371758628  -21.90041673958812

