41
CSD_code = VAWROD | q = 0 | S = 0 | Stoichiometry = C21H16BrCuN2 | MND = 2
Br        6.82402175819176    6.28718618185266    4.99105901599817
Cu        4.86408936894650    7.20372558811919    5.53795901016069
N         2.80691852813943    8.51157560582751    7.21306482145766
N         2.07766872200390    8.15233123923357    5.23099340265959
C         3.16454973174570    7.99686873803542    6.01702115965145
C         1.52160553531819    8.97756445041636    7.17515768628201
H         1.04756489960247    9.41519093917833    8.02921044665856
C         1.06197312083723    8.75357105151257    5.92202102280403
H         0.11687531258524    8.97462794947370    5.47081558453949
C         3.64637177161328    8.54646420615873    8.39021455019645
H         4.63107447125038    8.14897325111015    8.11669185674786
H         3.76549456445560    9.58526054939285    8.72447185601048
C         3.07337315448370    7.75238215591653    9.46101045681850
C         2.55528354024561    7.08504726174490   10.31705942356709
C         1.97831718601892    6.30383497135689   11.34617775632943
C         2.71443433760931    6.00434478531313   12.49223324145076
H         3.72539690400209    6.37270626526893   12.58519230220419
C         2.14697240820891    5.24012051377482   13.49353827564296
H         2.71917288450902    5.00825064658841   14.37963211907768
C         0.84971393034660    4.77004427989844   13.36331680891900
H         0.41070726923186    4.17217311451688   14.14796516865586
C         0.11623187992592    5.06588319949134   12.22539953116278
H        -0.89443226977502    4.69863264026266   12.12333061650311
C         0.67314600758432    5.82975723680493   11.21773603008423
H         0.10696996469695    6.06258699073129   10.32727840475551
C         1.99471355453316    7.77173048539517    3.83817342822456
H         1.17362204750420    7.05613134466275    3.70135911945137
H         2.93736147197257    7.28344928894897    3.56315350298522
C         1.77593035262801    8.93323025754715    2.99641255488038
C         1.58995709508974    9.93002374112547    2.34932475549631
C         1.37655320637158   11.08100853359224    1.55438936117313
C         1.24220223972851   12.33160939791847    2.15674792733715
H         1.30335675188234   12.41390449346591    3.23243940733004
C         1.03587054166321   13.45281551540635    1.37619723484065
H         0.93356871979546   14.42063810787107    1.84475486506835
C         0.96164510482659   13.33888466339594   -0.00289129089731
H         0.80094781543218   14.21785746856408   -0.60907234045657
C         1.09505926462822   12.09724909055989   -0.60402200760313
H         1.03827954550155   12.00861486233217   -1.67887280821126
C         1.30170119608038   10.96916404144986    0.16632692291246
H         1.40853611058560    9.99838489580661   -0.29477118086363

