47
CSD_code = VAWSAQ | q = 0 | S = 0 | Stoichiometry = C21H20AuClN2O2 | MND = 2
Au        4.74678158861860    4.32021160602891    3.27843395363547
Cl        5.28809670147826    2.85735905792879    1.66048662065408
O         7.07825755262075    3.05698575945220    8.08906423310647
O         0.72145215606020    7.68278811241219    4.57792446474892
N         4.52632775558107    5.55545536107536    6.01935387051764
N         3.59891216442239    6.79895057432885    4.54034884942196
C         4.25994822200784    5.63927128525862    4.70468592172923
C         4.03601224449001    6.65305688949089    6.67326136035887
H         4.14092327077225    6.78502158407200    7.73001792406106
C         3.44701278815939    7.43684921876203    5.73903110406979
H         2.92157027580996    8.36378956966362    5.83007145214629
C         5.27356752151773    4.49291505945806    6.63955348575373
H         4.87395887310392    3.52946559586332    6.31262523238334
H         5.15783041103138    4.56470521429600    7.72330855183950
C         6.75798183984736    4.57030457857212    6.27640788102996
H         6.89125059275218    4.28763035009712    5.22980824373912
H         7.12112760854455    5.59370903659925    6.40500050788428
C         7.58373699722372    3.65478344694658    7.16495460966052
C         9.02904859498186    3.55273545229434    6.85977305161372
C         9.80441362652532    2.73131852481283    7.68147000824918
H         9.31410611195948    2.20935291073533    8.48963583780490
C        11.16033648626141    2.59213928645700    7.46308596921129
H        11.74838467719299    1.95337872699555    8.10489658829937
C        11.76361917248905    3.27296426393181    6.41762240954553
H        12.82381090785145    3.16680814656156    6.24196816716488
C        11.00428269722329    4.08963195547160    5.59437392585595
H        11.47427342963153    4.61703109001546    4.77763751180406
C         9.64619933205987    4.23204574339957    5.80897379614638
H         9.07696336497128    4.87016388612434    5.15157727697249
C         3.10113478074782    7.27665067899149    3.27543157199218
H         3.88355930882585    7.14681856501660    2.52311162892055
H         2.86416011935450    8.33747935753124    3.38138525600611
C         1.85065397213611    6.51056003023130    2.83680805379235
H         2.05043570064808    5.43791251427937    2.89830413212776
H         1.62548471993094    6.75339676372539    1.79687986191534
C         0.64399529026780    6.85932929048181    3.69063682427639
C        -0.62514116345952    6.16856847397874    3.37304057496600
C        -1.76376357491378    6.55017270379642    4.08690611574500
H        -1.66257555097948    7.31961418673791    4.83790897950935
C        -2.98604600529229    5.96090732551512    3.83374160913939
H        -3.85912649610703    6.26650186367969    4.39060702131834
C        -3.08859130795037    4.97711934721233    2.86294988850534
H        -4.04266001775512    4.51362645421948    2.66065192959687
C        -1.96470199265197    4.58661295598107    2.15157159277924
H        -2.04470589773302    3.81788315443395    1.39765928488647
C        -0.73865438164697    5.17490400032990    2.39982336328708
H         0.12135553109268    4.85112004663265    1.83532950178502

