88
CSD_code = VAWYIB | q = 0 | S = 0 | Stoichiometry = C45H37ClO2P2Ru | MND = 8
Ru        4.38678369164297    2.49763691244213    1.90274337918271
Cl        2.48396692466329    2.16839111188392    0.50196495974875
P         3.05842249754108    3.82015261690914    3.19733882690697
P         5.26082210316059    4.11632615750328    0.54964993006529
O         3.26538853493612   -2.92744401462813   -1.50090670406934
O         4.57106433477334   -1.54447336155084   -2.71504161319693
C         6.19069689899379    1.14154305291881    1.66354421041257
C         6.23735193320519    1.71942125613705    2.95983679829266
C         5.09132584253251    1.27839497688345    3.67231638053260
C         4.32164125353476    0.45037813232405    2.82698380148335
C         5.02121457553685    0.33693719528900    1.57920386574175
C         4.66556867144222   -0.47844045217199    0.49801153466344
C         4.39119016973813   -1.15251636540973   -0.46853906145531
C         3.99861908225995   -1.97324839341319   -1.57012945415324
C         4.23326824112262   -2.28168966330095   -3.87646258059025
C         2.02389188023729    2.76153675564857    4.27304888641699
C         1.31288469737270    1.72468306484115    3.66886958306081
C         0.54409095520010    0.86527071749944    4.43136770071639
C         0.48825540803992    1.01755787118755    5.80733300187211
C         1.20849526980229    2.03140176004009    6.41519439455468
C         1.97448188190407    2.89987156184382    5.65655101326075
C         1.85070483356293    4.95149897834107    2.42822419560608
C         0.56572094735006    4.54924073407828    2.08363190705730
C        -0.28852345033489    5.43382290465109    1.44909322182270
C         0.12601132912256    6.72222136152232    1.15809381085941
C         1.40710362013913    7.12736781151333    1.49526459333323
C         2.26774534897601    6.24384588365281    2.11615512039996
C         3.83184014125264    4.93362565172244    4.41947300489887
C         5.17933313600514    4.78126582141324    4.71447222760435
C         5.78492392433143    5.57897855871652    5.66955875083498
C         5.04426997879051    6.54018786117113    6.33511128199268
C         3.69673041152307    6.69815017022808    6.04698061045731
C         3.08910082369990    5.89828017766967    5.09782109819148
C         4.39424797529862    5.52417359324371   -0.22911419909636
C         3.10722049214064    5.28914721478466   -0.70388412171557
C         2.43656733740484    6.27136366215677   -1.40886691125660
C         3.04213077554196    7.49421338085886   -1.64336389706350
C         4.32624360683534    7.72850320327120   -1.17971995391003
C         5.00802139620103    6.74687277476138   -0.48381440826420
C         5.97247636469867    3.43914491847942   -0.99122893894363
C         5.45676717585345    2.25255760173921   -1.49787926008837
C         5.95668493153571    1.71765430780768   -2.67205774521332
C         6.96532082550498    2.37619957792298   -3.35414697788361
C         7.46120038972382    3.57763343831888   -2.86983946746733
C         6.96626280093713    4.11355073764036   -1.69619178082435
C         6.69016648452673    4.88879809943057    1.37217661177534
C         6.48882056730448    5.98995272861701    2.20050997501939
C         7.53814977944711    6.52672270583781    2.92218593224767
C         8.79835419682419    5.95647095444735    2.84167002762098
C         9.00265714677436    4.84574544115216    2.03894420594294
C         7.95512140565180    4.31107144491794    1.31116242068091
H         6.98057021345038    1.16417848712085    0.92391009158120
H         7.09021856720751    2.23847597606773    3.37695443636631
H         4.88896371052327    1.46298697099891    4.72039393780923
H         3.47076658505455   -0.14935907848501    3.11892160649131
H         4.78554966627022   -1.82975396233325   -4.69682829854003
H         3.15871060984533   -2.22545979427058   -4.06345629920505
H         4.51356108198484   -3.33077351158110   -3.75793305779836
H         1.37691019935574    1.58609272890592    2.59701337073096
H        -0.00566729370956    0.06896899330619    3.95083998062319
H        -0.10693329225472    0.34271799363201    6.40483489385004
H         1.17876823989848    2.14732411462938    7.48915741129009
H         2.53716877880138    3.67976237449372    6.14880076905920
H         0.23279316253838    3.54814062422652    2.30868808135430
H        -1.28478719022195    5.11358267054833    1.18167394877763
H        -0.54645564645331    7.41043400472205    0.66737203211991
H         1.73894432360009    8.12949285083788    1.26599902052298
H         3.27139408002851    6.55619835808396    2.37162900951055
H         5.75070057031187    4.03743757025834    4.17598423483134
H         6.83491423991150    5.45232567082783    5.89013714589083
H         5.51342360814790    7.16727388189957    7.07898540158392
H         3.11742483930842    7.44633586627744    6.56831920533229
H         2.03697826320126    6.01652917854294    4.87767034857721
H         2.63554150396078    4.33585355728866   -0.51004510181403
H         1.43819615130856    6.08039669493777   -1.77294046210432
H         2.51807313074169    8.26438403517396   -2.19056421749311
H         4.80433748292906    8.67949093451798   -1.36751421694362
H         6.01379836160036    6.93880459469016   -0.13747461971720
H         4.65452580067269    1.74736157199461   -0.97650719199851
H         5.55934301887083    0.78449042764008   -3.04170765105397
H         7.36405915603975    1.96002993598603   -4.26789776826597
H         8.23845057784570    4.09848380266708   -3.41062565735382
H         7.35300454843081    5.05115556856802   -1.32137401621789
H         5.50028484883083    6.42216495343956    2.27263424842601
H         7.37074700013963    7.38703698769861    3.55381991538072
H         9.61928035648623    6.37352256992044    3.40625034634487
H         9.98264241710067    4.39404378995847    1.98052319916196
H         8.11909878373603    3.44541601572157    0.68385573451963

