75
CSD_code = VAXMOX | q = 0 | S = 0 | Stoichiometry = C32H39BrNiP2 | MND = 4
Br        6.54565531403974   10.38058467006708    1.78491463210512
Ni        8.53575077600264    9.89351174817790    2.75192628611939
P         8.17293479919573    7.77133935879518    2.43479991923068
C        10.08766679892240    9.42162761507886    3.68908494031769
P         8.99706583770287   12.03268469646166    2.90286924476051
C        11.37621480672761    9.40838237967107    3.04534235068165
C        11.79915839720049   10.01030644190402    1.81657090736849
H        11.03963508824258   10.31073621830882    1.10403466441540
C        13.11100521401643   10.32598575507690    1.55552686992016
H        13.34701405515706   10.86561274120274    0.64742284979742
C        14.15377301686708   10.07402122149144    2.50305800868884
C        15.43640036263629   10.69133133158331    2.66062430372080
H        15.84452966032993   11.25875877453228    1.83459196467961
C        16.11303961763404   10.68658407706959    3.85700644059016
H        17.03282690654862   11.25074614520373    3.93595120351681
C        15.58393096988758   10.06305679312939    5.03278420920167
C        15.85834920829404   10.30246143597634    6.41773141144148
H        16.75890442009098   10.83960045549005    6.68412678326483
C        14.96410068215438    9.97940102575273    7.41099683370324
H        15.18894696392855   10.27338781886491    8.42768801097883
C        13.69501913151124    9.37741827387638    7.13357255603495
C        12.48021600097403    9.37244074582642    7.89232566331557
H        12.52183490173750    9.62418933001321    8.94372628054306
C        11.25041400680192    9.17592970270531    7.31040227985971
H        10.36331197715379    9.28098145656785    7.92159250308088
C        11.09592917836901    8.96136665504237    5.90251769504377
C         9.96674620389419    9.18478688721358    5.04591885094684
H         8.99233032500887    9.26439497667982    5.51904747128597
C        12.41603245503430    8.96264666132714    3.84037550658059
C        13.76368649436666    9.29674951917674    3.57729140375287
C        14.46031979906702    9.29156631410517    4.80506136994534
C        13.54479078184333    8.95629055879484    5.82582599761318
C        12.28346149827144    8.74909885026559    5.22928959694697
C         6.58957434991782    7.10016312083339    3.09614697373779
H         5.78119759145621    7.67219216658471    2.63276291575415
H         6.49369645948615    6.05671030052209    2.78620116256318
C         6.51582434501219    7.24066555979433    4.61111224004431
H         7.32160522318416    6.69447285401206    5.09918489457771
H         5.56599816962679    6.86419568966405    4.98580936455716
H         6.59591764910899    8.29152206980118    4.88908137185676
C         7.98435216542192    7.43231984524016    0.63071091122040
H         8.04902744865540    6.35796938643447    0.44470207021172
H         6.99003697919369    7.77868054427625    0.33672472150848
C         9.04539179283964    8.19214874573291   -0.15521149027384
H         8.97724779447331    9.25646138688485    0.08846241521904
H         8.89570140611180    8.07941047416731   -1.22707810329297
H        10.04740685194342    7.84543665069248    0.09486252831640
C         9.43331698649022    6.51896555630342    2.95904513855764
H        10.32961646188048    6.73563153025693    2.36839653897366
H         9.68749678707296    6.73158273237329    4.00113130009493
C         9.05599026625508    5.05111569223488    2.81507449836039
H         8.26000127052735    4.77831958556971    3.50349486538439
H         9.92151267944952    4.43161791317123    3.04453883224673
H         8.73516610095625    4.81258194470344    1.80339409920510
C         8.70045894555329   13.07116448140122    1.39949387124278
H         7.65810802735203   12.92591410911622    1.10486169186812
H         8.83389442717423   14.11740176087773    1.69232215906308
C         9.60703047831681   12.72395684985373    0.22681436285669
H        10.65756069739762   12.83504449954699    0.48985314014011
H         9.39343169864372   13.37556824671687   -0.61832435084992
H         9.43086909104378   11.69756992926569   -0.09187886745528
C        10.59831529394947   12.78725676374527    3.46238006373928
H        11.39262072891107   12.36507231771408    2.84143637459206
H        10.53606536995780   13.85940012313849    3.24877050050686
C        10.95117757813261   12.57975658790010    4.92821375067625
H        10.22331999300459   13.05933204119480    5.57890542080647
H        11.92825553274038   13.01348926761147    5.13691479304452
H        10.99775789861500   11.52303376528064    5.17535427913558
C         7.76279119941070   12.80734726826826    4.04088042525222
H         8.15319007301793   13.76081297542871    4.40651591370493
H         6.86452164427544   13.00127979564899    3.44778886261027
C         7.40819279528630   11.87211898183386    5.19087008603102
H         7.09702975082410   10.90416228828932    4.78454221870968
H         6.58255630584933   12.27197268729056    5.77689455395478
H         8.25917804191350   11.71210087514475    5.85004449210281

