56
CSD_code = VAXNIS | q = 0 | S = 0 | Stoichiometry = C18H28Br3N4O2Rh | MND = 6
Rh        8.02848262958985    0.71959504736947    2.94415110309335
Br        8.59881860530760    0.67864408631957    5.34213528967000
Br        5.64198335474343    0.01335987456178    3.31839736143767
Br       10.35204510414897    1.40372673876352    2.25743470465782
N         7.34681633905565    2.65120018862052    2.94373858013332
C         7.12393156705481    3.74230767929373    3.87729709129494
C         8.45744019033978    4.32101768592892    4.39223490833638
C         9.29979895224653    4.94568545138422    3.28354538986251
C         8.18725877646692    5.31776261170860    5.51420947566564
C         6.26098473370137    4.71216079434777    3.03262656030863
O         6.26222924009916    4.16607511790949    1.70149523042934
C         6.86204787546646    2.99059020272988    1.80304292846171
N         6.96652585745297    2.11287845494837    0.75604548312186
C         6.64527948306150    2.09810921069209   -0.58363552305760
C         7.03595663410882    0.89118628820178   -1.05132048740963
N         7.58418953793931    0.17846947952830   -0.00164288738607
C         7.53762955274963    0.92513357463479    1.09251416466164
C         8.19511874450944   -1.14015946305040   -0.05328039134087
C         9.42393529762947   -1.06471421637190   -0.97102413451085
C         7.15841192665723   -2.14999332844305   -0.56421690084962
C         8.67444505126140   -1.63897608409964    1.30345254317703
O         9.29650802156718   -2.81619349433924    1.20728598781284
C         9.80743667963876   -3.14078007563333    2.50260752628548
C         9.13366414136063   -2.12476489535819    3.43729965919623
C         8.02677394986221   -2.71318117398503    4.33679687370067
C         6.98675789021342   -3.50764744060522    3.55241894186160
C         8.66206949962229   -3.55123399250935    5.44122011584101
N         8.58088826692488   -1.15621616166685    2.48621161425805
H         6.56716307177887    3.35285878022481    4.73754972984124
H         9.01687020531135    3.47819717899849    4.81032043375154
H         9.47056515854879    4.23888559445755    2.47470357233207
H         8.83703860199719    5.84256396112743    2.87494443382383
H        10.27082671352250    5.22231390129921    3.68486746111662
H         7.64397631393416    4.84128719425057    6.32621963518026
H         9.12946816748492    5.68884520152252    5.90755570054020
H         7.60625688241138    6.16637598509720    5.15706098856074
H         6.67118893849540    5.72052575147702    2.98340905735809
H         5.22416154795541    4.75543859222173    3.37543667896456
H         6.17896258578812    2.92745689094877   -1.07259248475644
H         6.96063735828869    0.49513570026556   -2.04242344620065
H        10.13794560521833   -0.34434876274539   -0.57444533442581
H         9.90209737621748   -2.03777504486870   -1.02718761809353
H         9.12971173749965   -0.75673833407710   -1.97090666191486
H         6.27462508197752   -2.13197999945478    0.07132998315016
H         6.86455366655110   -1.90857067696573   -1.58222125439661
H         7.58258892088361   -3.14954901064870   -0.55027610132553
H        10.89583030784926   -3.03035241334348    2.47676058334798
H         9.55210168527491   -4.17602576726955    2.72510070703786
H         9.86039629350023   -1.61110294794442    4.07509004690924
H         7.51618450800117   -1.87073959771252    4.81098697050216
H         6.53234721612480   -2.89353481473075    2.77793823739696
H         7.41088176534018   -4.39879691342406    3.09321728387328
H         6.19472767337610   -3.82045683482092    4.22712634788327
H         9.33541595249669   -2.94046922155836    6.03682804076419
H         7.88694202630483   -3.93930308323498    6.09593350709608
H         9.22020673508801   -4.39188346997052    5.03303229297385

