69
CSD_code = VAXQAN | q = 0 | S = 0 | Stoichiometry = C25H35Cl3N4OTi | MND = 6
Ti       -0.29359655940303    4.60657141692035   10.62059115614327
Cl       -1.03508705263402    6.25632564608800    9.32040563405469
Cl       -0.15368017121671    3.14456261878943    8.96946743346523
Cl        1.81897974989903    5.21740812805066   10.43111909911212
O        -0.09113765047496    3.46245801775085   11.89415440434240
N        -0.66931259453262    6.03456422045548   12.28442622614769
N        -1.61304174224627    5.78337854086003   13.21675330032199
N        -2.45325678936692    4.21042541329103   10.96411066422885
N        -2.93294332543560    4.05839420762860   12.21463354988940
C        -0.24459013880114    2.93410853489532   13.08639688420317
C         0.56162756170161    1.87386517413259   13.57774785918640
C         0.34082653549253    1.43236898156508   14.86825464597513
H         0.95986780565454    0.63886186985630   15.24839960695765
C        -0.64057376402016    1.94895717887078   15.71468801946144
C        -1.45050238173093    2.94612243062272   15.20635345638149
H        -2.24614475656382    3.36872823779327   15.80043981655813
C        -1.26431003228573    3.43056189306796   13.91776300240249
C        -2.22457014664309    4.48716546053369   13.40717289900270
H        -2.99346024688947    4.63122296714365   14.17535003772954
C        -0.29462416438338    7.29996781270466   12.44747517885020
C        -1.00949951582997    7.86538602094605   13.51550315403293
H        -0.92560846809497    8.86675801429100   13.88418473733723
C        -1.84137247728280    6.87729238459067   13.98602919854847
C         0.72319938184222    7.98211415122425   11.61526728088818
H         1.67867000248062    7.46068949978999   11.67839397169169
H         0.84294880783273    9.01004887903950   11.94756115401820
H         0.41403754935193    7.97231986701366   10.56870407866498
C        -2.81241915849128    6.92049238243121   15.10984450330339
H        -3.82638668595207    6.71442810612500   14.76647095725861
H        -2.79818710298495    7.91447119239285   15.54797732629497
H        -2.54864831482142    6.20100790586028   15.88487653937152
C        -3.39154136290137    3.75970831550794   10.13521780420856
C        -4.48569925822103    3.29048293866493   10.87976698139544
H        -5.38836540396743    2.86391494283765   10.49384703561367
C        -4.16355708921362    3.49149684571137   12.20206246785287
C        -3.27608424238282    3.78533552417732    8.65809017558422
H        -2.83379742626698    4.72673716698261    8.33133930593655
H        -4.25842616224635    3.66238017674169    8.20888452202341
H        -2.62312178978908    2.97982784887564    8.31872077549535
C        -4.93064596022396    3.16372331974090   13.43086904498852
H        -4.34331849458087    2.52738483503523   14.09234299167214
H        -5.83741836262459    2.63434561301815   13.15254493011178
H        -5.21664548567462    4.06452086770863   13.97531171242616
C         1.61809863613115    1.24208492604010   12.68317057166991
C         2.35294671644053    0.08014324236036   13.36172091605991
H         2.89667818271399    0.41425623704081   14.24272248184087
H         3.07665896504647   -0.33298872392079   12.66278649103021
H         1.66620080951674   -0.71664177128779   13.63967363151189
C         2.65973971518302    2.30083593641153   12.30136384671953
H         2.20348040586888    3.12044726915315   11.74942527771625
H         3.42707737366199    1.85558371715240   11.67233831767217
H         3.13426606671127    2.70497211268814   13.19413767486605
C         0.93212203972848    0.69340115861050   11.42368062837840
H         0.17981199577906   -0.04598341307701   11.69511382253044
H         1.66758750685222    0.21823894604743   10.77901792737290
H         0.45160551903751    1.48848476218907   10.85533402419087
C        -0.78637443607277    1.39382549101726   17.12264658887671
C        -1.91299112703252    2.07251102443916   17.90747862105243
H        -2.87657089117519    1.91605440067006   17.42699041939950
H        -1.73094780590890    3.14000923272886   18.01054008520151
H        -1.96536390157913    1.64492335459844   18.90633294305838
C        -1.09792103902455   -0.10742818010658   17.04363390304752
H        -1.23128693823495   -0.51487428984612   18.04334082658803
H        -0.29426058742573   -0.65371812289498   16.55919623137374
H        -2.01228782054326   -0.27374892784231   16.47765387109428
C         0.52710100701516    1.61497990417334   17.88554862098436
H         0.43832692013331    1.23736701859117   18.90189628943023
H         0.76258173998670    2.67640986608999   17.92972159639080
H         1.35503783111941    1.10326927924124   17.40392086881426

