93
CSD_code = VAXQER | q = 0 | S = 0 | Stoichiometry = C31H53N7OTi | MND = 6
Ti       -1.48933078641811    1.36211580835793    3.40079390700753
O        -0.42211839216696   -0.09741868516060    4.04960529548506
N        -3.02352616601377   -0.15630514591270    4.71174912120014
N        -2.61113373441803   -1.42635038626212    4.64096565102848
N        -2.24842266315510   -0.30620631802831    1.71353072688817
N        -2.89917257864482   -1.32834318029067    2.28766613321137
N        -3.02505212471076    2.26087698074610    2.70284884205947
N        -0.15768159002735    2.00779744704569    2.22047204717412
N        -1.26251407499689    2.47198126031954    4.92382905937245
C         0.06031981160735   -1.23404360753477    3.65189143070346
C         1.44363593882579   -1.59657410840037    3.72615500071154
C         1.85456273842045   -2.75399584100107    3.09920921215402
H         2.90388011704425   -2.99522208263183    3.10815305757922
C         0.99569606500973   -3.65546716903839    2.46485392316959
C        -0.35751672915662   -3.40748732367725    2.58200174537124
H        -1.09042148646844   -4.11304885318436    2.21886181062138
C        -0.81379789772608   -2.24103616834352    3.17809943229315
C        -2.30321399944342   -2.06297531618741    3.37372170112873
H        -2.77500118121920   -3.05759657665792    3.38980293599562
C        -3.26333116588019    0.08624530854588    5.99485481903674
C        -2.96715941047733   -1.05247642867366    6.76105725862657
H        -3.04655069834850   -1.16086971384436    7.82382855497630
C        -2.53993553712595   -2.00553676022401    5.85907330709945
C        -3.85524720782467    1.37371424659346    6.44547236430533
H        -3.62221890287904    2.14122280431844    5.70966980367867
H        -3.46257791819566    1.65389061493993    7.42020990509788
H        -4.93891864358938    1.27448139640979    6.53027940495650
C        -2.06624416451573   -3.39827786028873    6.05931853881322
H        -2.75323939783923   -4.11601557166345    5.60812556525219
H        -1.99435151237482   -3.61066852980783    7.12225137987283
H        -1.08661699911914   -3.53278675132266    5.60026604377156
C        -2.92040392644683   -0.00867324346978    0.61104563518304
C        -4.04182497624885   -0.84741304801971    0.48900102787049
H        -4.77755255829467   -0.83835797488884   -0.28975293588645
C        -4.00080702626844   -1.68359167963903    1.58135680558817
C        -2.45755302058783    1.02162945817635   -0.35457579137844
H        -1.87215530011862    1.76839685768910    0.17540252490113
H        -3.30697028990017    1.48790687413415   -0.84899905241685
H        -1.83288573794296    0.55545486273764   -1.11809776795401
C        -4.92807577936492   -2.76796618786530    1.99774128358035
H        -4.45454887327996   -3.74780302376252    1.91732585890479
H        -5.80201702777288   -2.76046708973240    1.35219533772947
H        -5.25468883806163   -2.62511342404645    3.02772978085682
C        -4.40472375981342    1.86493930913846    2.84315906264993
H        -4.99543702584173    2.64518599989291    3.36204419338563
H        -4.49649851414083    0.93830943959607    3.40875255638896
H        -4.88576929866277    1.71770522188364    1.85467934148794
C        -3.00272500039204    3.47821133047931    1.92593425980994
H        -3.52358459032857    3.34953086957527    0.95768838225309
H        -1.98009514141653    3.79880690614215    1.73145863183593
H        -3.53770503589783    4.30107645454584    2.44280848921156
C         0.52202926680555    1.14756864733614    1.28033122258423
H         0.55193168949298    1.60658513737555    0.27392625581331
H         0.02351534893212    0.18008885948216    1.20676157393346
H         1.57227529979782    0.97258794929328    1.57217672058739
C         0.54919138829190    3.26066283490106    2.31349806773354
H         1.59789011826273    3.11669712080757    2.63569462555557
H         0.05994814292200    3.92556814508498    3.02461584242897
H         0.59053408644507    3.76950526524812    1.33032470667995
C        -1.59125558785768    3.87014116575477    5.05626649093618
H        -2.15091567107613    4.05985794054425    5.99252819123258
H        -2.19936498210819    4.20605881292955    4.21940293922807
H        -0.68294159170927    4.50205539084759    5.11047187431898
C        -0.48945836623739    2.07622840602184    6.07526150215489
H         0.50540538110819    2.55961185163849    6.09135108648221
H        -0.35475895120168    0.99653159343197    6.08906018853344
H        -0.99986024337208    2.36921023338545    7.01148548444893
C         2.39830030792875   -0.80245259303003    4.61248277542462
C         2.42492685205519    0.68623645751467    4.25171351356838
H         2.94869010135662    0.82554844483669    3.30715468910145
H         2.95986599152160    1.24331202140430    5.02015728583046
H         1.41532470770241    1.08466520091120    4.16189008682484
C         1.89054742259223   -0.98643479848772    6.05234282189316
H         0.85847666168567   -0.65817099662836    6.13531045261296
H         2.49557299783458   -0.41013288134201    6.74960405628189
H         1.93951896529095   -2.03709586173838    6.33595362822920
C         3.84402660522047   -1.31256518007156    4.56154466051418
H         3.92119182221608   -2.33710765703174    4.91892300392192
H         4.46094800815694   -0.68876197585948    5.20599718079420
H         4.24730898469107   -1.25388299601141    3.55282025290650
C         1.56967063604671   -4.86988921006051    1.75270538749687
C         0.48546446758293   -5.71858760738250    1.08219399934807
H        -0.19257430557141   -6.14259681450741    1.81957652262340
H         0.94880031196783   -6.54202406539582    0.54193880849565
H        -0.08602186286626   -5.12633011783397    0.37114989880252
C         2.54226188066827   -4.39648030333114    0.66350821354244
H         2.95584957917615   -5.24967250352707    0.12899768843392
H         3.36518132941048   -3.82975884505400    1.08929791592755
H         2.02366932615716   -3.75858159977936   -0.04901160012275
C         2.31490454287053   -5.75482817266837    2.76193675397488
H         1.63886959623610   -6.07631344608295    3.55179138654118
H         3.14161049534076   -5.21891804486070    3.21955951093998
H         2.71357125882367   -6.63832720975861    2.26698873077557

