43
CSD_code = VAXSOD | q = 0 | S = 0 | Stoichiometry = C8H20B10NO3Re | MND = 9
Re       -1.38958470559382   10.03688447243280    1.05989312821478
C        -2.45465457059324    9.92629980265495    3.19554065185423
B        -2.51629736896663    8.36355608508608    2.85246885420007
H        -3.04502164684427    7.89413402744744    1.90158662883893
B        -3.32361917233047    8.97129875463216    4.32168758028364
H        -4.50013871922977    9.04314916633025    4.35897025886970
B        -2.20785496570659   10.27618967616286    4.79418282865057
H        -2.56486648878992   11.36471767198472    5.10038014776156
B        -0.78036464637525   10.00540985352761    3.66748939499777
H        -0.22221752754234   10.94057142095391    3.15096093607140
B        -0.78530242352870    7.93750326881855    3.39103617302643
H        -0.27789356577058    7.30071695374396    2.53061319115784
B        -2.27098524516279    7.51704014899357    4.31834125396447
H        -2.68701214144559    6.41356203072050    4.37359624108010
B        -2.26235057860816    8.72467720796048    5.68866731825626
H        -2.77891499384731    8.58811465743979    6.74043971354330
B        -0.73095663792071    9.61353112125725    5.51532130164578
H        -0.23276272071166   10.24593486252653    6.37770186321334
B         0.24510657739884    8.83659016785600    4.31691989564029
H         1.41822217801142    8.88183348626872    4.21862457645208
B        -0.78761018250449    7.84704544799052    5.27763696240961
H        -0.34501000437658    6.99425880905562    5.95952167916693
C        -0.63505444279443   11.57366328909062    0.14862385234400
O        -0.18454421913485   12.49757522016349   -0.36167409173968
C        -2.34538953851641    9.59398756206456   -0.56548088282225
O        -2.89092393954499    9.30310706084536   -1.53429261263920
C         0.09354170435843    8.88896307576701    0.47635155879024
O         0.99577122728908    8.27715852109004    0.14221534142716
N        -2.84698130159434   11.00604531166720    2.27783665092795
H        -2.48632319942945   11.88735763510099    2.66169077461155
C        -4.26240105509169   11.32435907325110    1.94374067472282
C        -5.02970840210947   10.10248503047520    1.44399963957770
H        -5.14672927253785    9.35632166671607    2.22369642746039
H        -4.52360480987339    9.65027759243993    0.59307709734467
H        -6.02076859776016   10.41089236520470    1.12080729059273
C        -4.20622149259697   12.37354989356076    0.82448753352376
H        -3.67884214999919   13.26776866025761    1.15239796193267
H        -5.21159942175312   12.66308195920547    0.53272898449586
H        -3.69242131323036   11.97296933525700   -0.04945171432372
C        -4.97128193476440   11.92998971446753    3.16158848601273
H        -5.01103157680987   11.22413955529170    3.98648851801494
H        -5.99011699746835   12.20179469695032    2.89784450191969
H        -4.46027971619887   12.83049368728841    3.50094342852593

