59
CSD_code = VAXVEV | q = 0 | S = 0 | Stoichiometry = C30H20N6NiS2 | MND = 6
Ni        3.60500984002987    8.71922984282265    0.05088784599939
N         5.27407679087716    8.91661872841924    1.10688974602911
N         2.68449565543896   10.49539128168261    1.19166669547205
N         1.91551404909011    8.52803325883870   -1.00704893406782
N         4.51208088502555    6.95791642302705   -1.12495382442246
N         4.23931001190368    9.86772779082097   -1.21461425582181
N         2.92916021698781    7.56013526503894    1.27706501966902
S         6.46101141927054   11.13342219862325   -2.25774574576580
S         2.87251806940279    6.59208322741801    3.86109462503904
C         5.21061591518692   10.38943512316475   -1.62859274035128
C         2.94795403455114    7.17614964162920    2.39037470402386
C         5.98926793847004    7.85316446504147    1.47331891066067
C         7.23109413790900    7.94232680339834    2.06975914562352
C         7.78074671749010    9.20215772836597    2.31159374866624
C         7.01873415050148   10.31220896636780    1.95141310803449
C         5.78505287272922   10.12067754665614    1.36074906021173
C         9.08674145497783    9.32164276678385    2.91576807777851
C        10.09953806262454    8.68153878745841    3.39313100751315
C         2.50842599389237   10.46868032069843    2.51037873446630
C         1.68934609919894   11.35033439866585    3.19213893185514
C         1.01001595216200   12.33265210787390    2.47350727638469
C         1.20683623438161   12.37525530079563    1.09210025032962
C         2.04653592027004   11.44490729770837    0.50945280864576
C         0.13173163224250   13.28906335495697    3.11210606563277
C        -0.66041738820603   14.28638193341257    2.90206540682631
C         0.72198180716308    8.51158094406730   -0.41580378651806
C        -0.46576069118433    8.36746175028048   -1.10777316217802
C        -0.43349805642964    8.22275175305810   -2.49390973261668
C         0.81892639368152    8.23787768119020   -3.10978736079207
C         1.94990903346802    8.39493075880319   -2.33278263057011
C        -1.63141465853063    8.06016607346263   -3.28536526812313
C        -2.08826392277469    7.89984604461284   -4.48183311703745
C         3.88912560032896    5.78135169782208   -1.14793771907046
C         4.38934570284358    4.66097046715095   -1.78395297315719
C         5.61600140185016    4.75253471763197   -2.44363043671200
C         6.27101720019420    5.98252743792241   -2.41972186780521
C         5.68146540480037    7.04163816010455   -1.75359037566052
C         6.16415605356929    3.59768635211392   -3.12085718659891
C         5.96262318116663    2.35641437147458   -3.41070198672912
H         5.55308489618833    6.88048987512170    1.29230181061898
H         7.77058328541001    7.04961286378215    2.34423636382212
H         7.37855858408641   11.31610195928307    2.11895689613534
H         5.18921613830633   10.97634857524886    1.07520966553750
H         9.49562890596801   10.33795798342901    3.07518407181323
H         3.04311183443336    9.70029615843434    3.05306341087818
H         1.58720295560158   11.26942628027599    4.26392203442896
H         0.71400510333435   13.12592563592340    0.49429808958747
H         2.22740793157855   11.46560559646508   -0.55783208886579
H         0.02076469998693   13.22714453616039    4.20912450720039
H         0.70578004930778    8.60428236923893    0.66164157153433
H        -1.40097291503278    8.36459780582754   -0.56825963038574
H         0.90036026404652    8.13044775671174   -4.17992340247644
H         2.92388603724840    8.42422395072533   -2.80173144284124
H        -2.60289684164760    8.05426328456374   -2.75787484134346
H         2.94526595955230    5.73152509501598   -0.62036277879294
H         3.84504987943275    3.72980409478584   -1.77200572486016
H         7.22262689955486    6.11951046073342   -2.91099311827984
H         6.17290649261630    8.00544052430448   -1.73245669090418
H         7.13951872348497    3.71472242459357   -3.62645676767099

