61
CSD_code = VAXXOI | q = 0 | S = 0 | Stoichiometry = C24H28Cl2N2O4Zr | MND = 6
Cl        1.23370809271980    2.03179491763911   12.90020498194302
Cl        1.54321655581628    1.94857091265883    9.54775404500014
Zr        3.03370845337792    2.01325460284283   11.37525040003823
C         4.64190822955744    0.62282415424055    9.10629434197000
C         6.19116526372923    1.88910685739131    8.11651961733457
H         6.15572870035821    2.34697707102569    7.12680113506763
H         7.23444642558460    1.69164282473915    8.38945958070446
C         5.43716013336377    2.71085888466281    9.19221190337191
C         4.49217666204857    3.72287725240611    8.53193909213920
H         3.81530441451009    3.20787070285832    7.84957608729297
H         5.06530445147784    4.46681314251925    7.98161833203866
H         3.89100680391562    4.21721055221737    9.29494845475616
C         6.34868688476468    3.38872126802907   10.21135627274524
H         5.72871936441560    3.80569453727147   11.00820797935489
H         6.91382810784678    4.18909448166888    9.73925466308518
H         7.04516407329524    2.66906244207996   10.63954526304181
C         3.79593189196216   -0.52892931667289    9.26698853097930
C         3.02748359475170   -0.66605698590819   10.45126778655058
C         2.04203758821384   -1.68098815234051   10.50889348463752
C         1.90405608416147   -2.55006054264858    9.44922062856275
H         1.14337903819652   -3.31644852658043    9.49390154966070
C         2.71679495305743   -2.45821951159882    8.31853069152332
H         2.59221490391917   -3.16239468720569    7.51071382553506
C         3.64416648925019   -1.45094258515725    8.22030626429645
H         4.24728717727693   -1.33000880958258    7.33401495722035
C         1.16917492577372   -1.72352982204972   11.72597916111468
H         1.71648719952074   -2.13823461815997   12.57354133475220
H         0.28506901491823   -2.32949014136441   11.54843634487911
H         0.86858610511127   -0.70557863677779   11.99297157561054
N         4.62684797354659    1.68343513630573    9.84934315393799
O         5.49474947634968    0.65042830548051    8.06858953193327
O         3.24372585512560    0.09839504406905   11.49102352655978
C         4.16201770329700    3.43960810198743   13.89695927552870
C         5.54018590607550    2.21472718594440   15.15518512740450
H         5.33975620393315    1.75312884545138   16.12325446157866
H         6.60950332624795    2.44314673825719   15.07489036812878
C         5.01755615116899    1.37495192113345   13.96256553357838
C         3.99541914287217    0.33671425179780   14.44255766329673
H         3.19326005225638    0.83168403045780   14.99076274782947
H         4.47876803183068   -0.39416262179753   15.08824969501047
H         3.55504034055291   -0.17026648795520   13.58403204952139
C         6.11759117580123    0.72357681926604   13.12912724066648
H         5.66529745875032    0.29489671796555   12.23199375417189
H         6.60550883545184   -0.06487872230374   13.69761978019525
H         6.86333270239848    1.46143828911260   12.83628101296452
C         3.32736993061649    4.56772772276551   13.58256669557301
C         2.78498220489485    4.68787297951993   12.27756965112011
C         1.79833195105173    5.67494122433561   12.03924025752102
C         1.44250660064024    6.53403137009427   13.05531148551648
H         0.68058815734253    7.27808738547714   12.87150729295204
C         2.03642065051925    6.46015821950303   14.31601876683033
H         1.74480270249628    7.15607081060653   15.08709072046988
C         2.95971278739430    5.48018556278818   14.58305892632699
H         3.39393204857633    5.37287409044850   15.56482643013956
C         1.16351505763549    5.69841362213929   10.68229699694170
H         0.24898942081115    6.28483916945244   10.69159012096819
H         0.93951995460095    4.67403264786211   10.36849779092909
H         1.84863841256286    6.12495695209676    9.94829416757575
N         4.31308686578642    2.38151947887645   13.16564065426067
O         4.81096229049452    3.43247481585399   15.07332037057004
O         3.20897904601776    3.93339812480251   11.29602646478575

