55
CSD_code = VAYDIJ | q = 0 | S = 0 | Stoichiometry = C23H24CrO7 | MND = 9
Cr        7.22721239219017    3.66936171146101   15.39941866267692
O         7.68765473582354    3.81069104923259   18.33351836419259
O         8.08917917319553    0.88238377140738   15.99067410661537
O        10.16360262021703    4.14943035572372   15.48338335622334
O         4.18248210146164    4.37985517748664   16.55745112695761
O         5.62092691496838    6.48612377381562   16.13725388359926
O         2.96595300450436    6.06053501380088   20.09140647907407
O         5.18520392536557    7.28477540352488   20.13912366054924
C         7.48003337441710    3.77916286351714   17.19480195472475
C         7.73467071605192    1.94947855690075   15.71898491706322
C         9.02271219730683    3.97480085176886   15.40300644898272
C         5.02933411750886    4.30081743645656   15.50664373375761
C         5.81746804379751    5.47397202916468   15.26394729348644
C         6.67465483413682    5.50742741462923   14.16270870399980
C         6.76561352532395    4.39596772994388   13.29204906463514
C         6.00441477132935    3.25927324955610   13.52983963093799
C         5.13189841997499    3.20930118759060   14.64088909860689
C         3.82951103731706    3.18717158150873   17.24321922049069
C         3.41800144523760    3.58600111504843   18.65645766719224
C         2.11855631812404    4.39086406679588   18.67123709558113
C         1.93498865025899    5.10441934203707   20.00921788769863
C         6.52342037285670    7.72616358150427   20.09292328517203
C         7.05792597103614    7.33690636088142   18.71699102131480
C         6.40552622345535    8.16405892145526   17.60976171445836
C         6.59012816557014    7.51687027088424   16.23972883701391
C         4.49468843043297    7.33196577353853   21.30782556025577
C         4.89732626554805    7.96904824948260   22.46682743001843
C         4.08888607357582    7.93713984241120   23.59716894764152
C         2.88325026861966    7.27124775358434   23.57155901699813
C         2.46495764313380    6.62454750756793   22.41433003127135
C         3.25758715985115    6.64780615374183   21.28245017650092
H         7.21723732793126    6.41303581927528   13.92400606322579
H         7.38338986722452    4.46933150792452   12.40585297857681
H         6.01914796086023    2.43146778246784   12.83181804006428
H         4.48605074887914    2.35132706851393   14.77677593854084
H         3.00029330172983    2.68316125680940   16.72641073391803
H         4.69696487558704    2.51288564797324   17.27965602114571
H         3.31886705407225    2.68699919330102   19.26679634529811
H         4.21151439969433    4.20899314263377   19.07039320201737
H         1.25987553408052    3.74518347798323   18.47939210974155
H         2.17473372295060    5.15126485853932   17.89228083982046
H         2.00528509266560    4.38754137382959   20.83937072526766
H         0.95046342159412    5.59313368621222   20.05018057446400
H         7.11341001828569    7.23714653035126   20.87987481324864
H         6.57846752894225    8.81542877761726   20.23616349204142
H         6.82367495977882    6.28401177472057   18.55932560005992
H         8.14175471528791    7.45892792020269   18.69768446134541
H         5.33454196371757    8.22423085981712   17.80543068063631
H         6.82065748789653    9.17307663154159   17.59638801104615
H         7.60172015719771    7.09706233653688   16.14930845894713
H         6.43204988775874    8.25373585135793   15.43934481156694
H         5.84107509454100    8.49052608738565   22.50244139498969
H         4.41560050697975    8.43821198477183   24.49557846714633
H         2.25522147293686    7.24594880342279   24.44898392644223
H         1.51843400682148    6.10639953037799   22.40554393278240

