44
CSD_code = VAYHAH | q = 1 | S = 0 | Stoichiometry = C19H19ClN3OPt(1+) | MND = 4
Pt        3.75222910805247    8.89434773921218    5.53732413100458
Cl        4.67354117225504   10.89471817679833    5.02982566496318
N         4.43361828318115    8.83739826593472    7.39386243696323
N         2.90100094046698    7.06582836766526    6.02460573440773
N         2.83189089190356    8.67452405628011    3.80453435373620
C         5.42249619494395    9.54765700022760    7.93655591432741
H         5.88878335370194   10.28434118220821    7.29423764008131
C         5.82508228924315    9.36754437356410    9.24881459230022
H         6.62391848736022    9.96784740122856    9.65145395189080
C         5.18532421319160    8.41212522747374   10.02190027610654
H         5.47338407653588    8.24520881921563   11.04751371583581
C         4.16121377314587    7.66840799953500    9.45165390468629
H         3.64046118071435    6.91780197195898   10.02484705428136
C         3.80157793244350    7.90481632524447    8.13564733786204
C         2.65426092744736    7.17292143712908    7.46925288837356
H         2.50369983480989    6.18774664527993    7.92831029008459
H         1.74561507933345    7.76447713003819    7.63473676556028
C         1.69901638519010    7.00095669289372    5.17947792677157
H         0.88211298469081    7.53684177077594    5.67727030455613
H         1.38133693776286    5.96316538961173    5.02250018028982
C         1.93597467943276    7.67045326037526    3.84254590115208
C         1.23192515115842    7.29365934764689    2.71019065041867
H         0.51292038831444    6.49200291614541    2.76981415961205
C         1.46595418535196    7.95280351493396    1.51269540692628
H         0.92730121380641    7.67253701370977    0.62129023393647
C         2.40193877309297    8.97424065818123    1.48588577598560
H         2.61589885647321    9.51218824349199    0.57734016313638
C         3.06366039009671    9.30545643334916    2.65478437331336
H         3.79581974538842   10.10204091594997    2.68657099648628
C         3.82962330067847    5.95356855814530    5.73043961941311
H         4.61143602947677    5.95173021862071    6.49495795989390
H         3.29172398501287    4.99930747986122    5.76640878677063
C         4.46005304618559    6.14351632091089    4.37625747335202
C         3.94523766830989    5.49332538078905    3.25212675072737
O         2.88746464319803    4.64953742375298    3.41806327597225
H         2.72481615198770    4.16376033546402    2.60012754441585
C         4.50067127180691    5.73404317114911    2.00030279315170
H         4.10230772752617    5.22096082945733    1.13612198524287
C         5.55016600619774    6.62215838580919    1.86108497027002
H         5.96613765539050    6.80414434489272    0.88287352632661
C         6.07581579607918    7.26212008843012    2.97197904409969
H         6.90753983279116    7.93883586392074    2.86730393881545
C         5.53579011575766    7.01750759616572    4.22315965789042
H         6.00035934012719    7.45982572651643    5.09974994869331

