109
CSD_code = VAYMEP | q = 1 | S = 0 | Stoichiometry = C49H49N8O2Ru(1+) | MND = 6
Ru        9.00759701976998    3.00201186094010    7.28856790894962
O        11.63331315817928    6.85818375093304   -1.78454381187304
N         7.98634705661960    5.05247723364250    9.11168458876555
N         7.61077907190592    5.92031693098254    7.18066004408967
N         9.00707182800061    3.00264040400106    5.37840932795342
N        10.76954092632038    3.90521663043711    6.94772790366320
C         9.00685455765612    3.00234091996070    9.27937891793563
C         8.47103268332709    4.07062183476072    9.99455338857103
C         8.46188188976576    4.08828876073786   11.38036598560116
H         8.04666498284798    4.91498499838282   11.93638900299048
C         9.00719057759537    3.00282062299422   12.05531135061144
H         9.00722125181982    3.00295426889885   13.13390742266319
C         8.11658435183752    4.82248792179904    7.77563645756776
C         7.40046996894304    6.26499057771279    9.33845528982761
H         7.20328225351879    6.64739665236907   10.31814079378785
C         7.15909729028837    6.80973420201740    8.12121326957911
H         6.71652483100775    7.74755952790468    7.85563555741823
C         7.49726070645921    6.10834645322567    5.75720980293351
H         8.35693751283847    5.62939994857958    5.27744714158325
H         7.53072467908513    7.17892722677172    5.53935361067888
C         6.20183801219288    5.49719731434373    5.21611365988031
H         6.13812799028739    4.45965260811419    5.55522029994656
H         5.34485144343075    6.03440249392243    5.62754472966702
C         6.15206500489477    5.53693339665094    3.69159858536139
H         7.03341830530496    5.02977784651857    3.29143246907929
H         6.17962998410320    6.57447762141699    3.35252560748420
C         4.89765681199828    4.85881399610493    3.15670356870521
H         4.88988178071712    4.87513941204857    2.07012292834700
H         4.00560716141136    5.36745197723997    3.51368227901348
H         4.85630508013823    3.82311247493773    3.48720933277397
C        11.66543344185174    4.34301463910106    7.84012752072537
H        11.40935730547227    4.18273820551846    8.88162564953372
C        12.84717333834810    4.96025921785557    7.48992148589483
H        13.53059614222277    5.28901152322104    8.25539404420253
C        13.13793788160265    5.15096381994457    6.14067511492693
H        14.05273749519394    5.63259130081086    5.83497034976229
C        12.22665343284709    4.70768848646624    5.20551832594686
H        12.41481973488601    4.83899375659000    4.15187847250580
C        11.05007264163576    4.08275806585713    5.62128890090341
C        10.03937890771507    3.56349486349686    4.71098677833275
C        10.06435881487592    3.58417585080778    3.32589798660877
H        10.88856149808111    4.02316267909031    2.78908086984740
C         9.00721233252152    3.00224770948222    2.60478236227053
N         9.00704023919961    3.00243813361516    1.23318651925838
C         9.68391360929539    4.00292130779224    0.50394574998514
C         9.58153318726958    5.34076061348497    0.86429409144031
H         8.98658296455302    5.62214190831696    1.72177407392882
C        10.22241630566239    6.32395337100251    0.13157471067935
H        10.11684760844448    7.35243642409893    0.43786932640823
C        10.97260660722612    5.98218655649018   -0.98992259860102
C        11.07111234150152    4.63519613625403   -1.35263984865116
H        11.65466971474270    4.38280561071798   -2.22289830592886
C        10.43906417060382    3.66011357032715   -0.61692960574489
H        10.51807466016270    2.62365279831078   -0.90775017197436
C        11.54445331850402    8.23536748166561   -1.50329024103009
H        12.12900299564030    8.73085862786323   -2.27612700257450
H        11.96776998953232    8.47359083268137   -0.52223498401019
H        10.50976233799758    8.58885185426398   -1.55095959623807
O         6.38058510697250   -0.85288087651582   -1.78493355249768
N        10.02775167098665    0.95223849770885    9.11217951824167
N        10.40319354268292    0.08384960981469    7.18131064923892
N         7.24446073325396    2.10068516932984    6.94776814756368
C         9.54308785118078    1.93439992646748    9.99477860906114
C         9.55250567982775    1.91720759085317   11.38059980260711
H         9.96777234863411    1.09066297318412   11.93681348039467
C         9.89725894666005    1.18164291377461    7.77609957404184
C        10.61372856335232   -0.26017751298435    9.33920965304533
H        10.81111154788021   -0.64225599334654   10.31898279101888
C        10.85495529343811   -0.80528588443152    8.12206695831884
H        11.29759808665137   -1.74312053461964    7.85667927464279
C        10.51674026185253   -0.10423832799694    5.75786378512788
H         9.65699449200448    0.37459788635568    5.27809873401523
H        10.48335819451522   -1.17482895946008    5.54010082334496
C        11.81202815352686    0.50696580289665    5.21648298661591
H        11.87573931438903    1.54455209879733    5.55546064791415
H        12.66909757004280   -0.03015164515193    5.62785614773379
C        11.86163948373629    0.46707025885460    3.69196260199356
H        10.98024124366438    0.97420433536950    3.29186291309609
H        11.83399000865602   -0.57051281542249    3.35301739803015
C        13.11599661614490    1.14504999577692    3.15676607260218
H        13.12362369332954    1.12855610883806    2.07018423280908
H        14.00807594510042    0.63642334850352    3.51369039119356
H        13.15743680522871    2.18079794127930    3.48711535625282
C         6.34869792657319    1.66246455342665    7.84015903026674
H         6.60500460652397    1.82218699621908    8.88166696982777
C         5.16731569058968    1.04444851724104    7.48996662041428
H         4.48400674237714    0.71542695975903    8.25543223786329
C         4.87670009124921    0.85338797512247    6.14073296258797
H         3.96190539629144    0.37173487378834    5.83502633483448
C         5.78796468755549    1.29671415889692    5.20558597555823
H         5.59983611191845    1.16530983962878    4.15195595209121
C         6.96425679668493    1.92225013012782    5.62135101291406
C         7.97494654923071    2.44140753895839    4.71102236228664
C         7.95009843546749    2.42032333175555    3.32595105687476
H         7.12586035110234    1.98135903018268    2.78917035992311
C         8.33015735697893    2.00204928426030    0.50383382520184
C         8.43261692661246    0.66415947124947    0.86394007954542
H         9.02762968474426    0.38265592072397    1.72133452851616
C         7.79168671645258   -0.31892968170381    0.13112356738512
H         7.89729320737779   -1.34745607583622    0.43726136872641
C         7.04136671598901    0.02300184584273   -0.99024207675088
C         6.94284120707525    1.37005030643372   -1.35275563964544
H         6.35919611051007    1.62257195100223   -2.22291677475510
C         7.57491077568157    2.34502520658692   -0.61692404765006
H         7.49586126643035    3.38153313431121   -0.90757093040841
C         6.46947876967956   -2.23010848769489   -1.50390177115728
H         5.88490174060686   -2.72551024126432   -2.27677480898214
H         6.04621610015553   -2.46849348624966   -0.52286245799121
H         7.50417769259324   -2.58355017412898   -1.55168012586175

