64
CSD_code = VAYVUM | q = 0 | S = 0 | Stoichiometry = C31H29FeIP2 | MND = 8
I         9.12984987507246    0.77466990753996    4.51217730342425
Fe        9.80573848196069    1.23442030650192    2.11031436916330
P         8.09124444841205    2.49623051447757    1.86043738238084
P        10.85772207986058    3.00497711911584    2.72480728354736
C         9.47913147148316   -0.74277325855346    1.36525146938920
C        10.79778997427026   -0.66786609405622    1.88762599516931
C        11.49558575978515    0.31838561230930    1.17548588436028
C        10.60837414449809    0.88008561219778    0.21856436774882
C         9.37381058309258    0.19337783335480    0.31984813560265
C         8.30074848627983    4.12330141677185    2.76152159081890
C         9.64734249757254    4.18295660107541    3.48803252367958
C         7.78856627668183    3.03662627326531    0.14370685580355
C         8.86342349134496    3.61602494585884   -0.52260056725768
C         8.75278557953532    4.00000733011242   -1.84373690915184
C         7.56392391380008    3.78734463462405   -2.52392311966841
C         6.49785225077977    3.18663551434204   -1.87624466461253
C         6.60573808503522    2.80700750392907   -0.54917302048709
C         6.41646905434817    1.96166441032375    2.32806240542089
C         6.17411454673606    0.59806303210934    2.43314322321637
C         4.90895908521072    0.13538563432112    2.74364129298068
C         3.87585749276820    1.03526635304162    2.94372320866708
C         4.10713110711789    2.39618059860554    2.82116212991778
C         5.37079527591482    2.86254147492680    2.50981926098892
C        11.79350180646347    4.04071650744015    1.54354193652207
C        11.34762843509407    5.25568407213489    1.03396711896252
C        12.11350426024571    5.94894989458843    0.11285273218360
C        13.32735785999941    5.43798039367552   -0.31304291712417
C        13.78153183971155    4.23022642536895    0.19262967404346
C        13.01881709718669    3.53888943992198    1.11308426883545
C        12.15979394188332    2.89058282804563    3.99334096437422
C        12.69841649137985    4.03650079616570    4.57065379904214
C        13.71157129256536    3.92549340354071    5.50341281417697
C        14.20010616496599    2.67703973684049    5.85598189850690
C        13.67700171928354    1.53639492007229    5.27162639962237
C        12.66053574497435    1.64322005971088    4.33996970048403
H         8.74254896248299   -1.47605863204407    1.64879416779917
H        11.20002850411956   -1.31043680358651    2.65401111239488
H        12.54345410684921    0.54518130368855    1.27307966154758
H        10.87746244543360    1.58670620762432   -0.54835749186716
H         8.52231687042802    0.33097635120973   -0.32722875878588
H         9.79362773067415    3.75112228332037    0.01068531474291
H         9.59472243210840    4.45571433565045   -2.34521706277563
H         7.47235916342819    4.08050171875530   -3.55934935772121
H         5.57457590455335    3.00780353426903   -2.40811270248252
H         5.76955985720974    2.33165028457253   -0.05683696971993
H         6.99037338117075   -0.09277740739985    2.28310314252566
H         4.72999148395613   -0.92542287434704    2.83551216335859
H         2.88774010027892    0.67798395523802    3.19314364976052
H         3.29823258624482    3.09751243893953    2.96737154548412
H         5.54027979004600    3.92481374257190    2.39493025703204
H        10.40030374425109    5.67023870537423    1.34790684145143
H        11.75782926822459    6.89315977344780   -0.27398592396998
H        13.92035903860416    5.98106082651995   -1.03386108826116
H        14.73147789930039    3.83019881734692   -0.13075196243098
H        13.37636161384005    2.60467378420999    1.52384430178172
H        12.32615030308095    5.01129830039918    4.28568303601773
H        14.12406989401614    4.81521157701063    5.95685259268896
H        14.99100304238388    2.59580933075908    6.58691944292302
H        14.05716249791954    0.56330057679329    5.54480533187304
H        12.23931707489154    0.75832662222101    3.88486140954500
H         7.48358844761075    4.22947276470184    3.48085422887794
H         8.21486189250230    4.92479101963079    2.01982248363774
H         9.53323531194644    3.84136515870408    4.52277383180336
H        10.04678603713369    5.20083055071835    3.51698201203384

