121
CSD_code = VAYWUN | q = 0 | S = 0 | Stoichiometry = C44H72Cl2P2Ru | MND = 5
Ru        4.48849453158921    3.15989953376307    0.92950478445736
P         5.39766543298978    5.27824436035546    0.39057211289822
P         3.95698355677373    0.97614326230689    1.66963940792656
Cl        6.48458106986856    2.21634482680059    0.19210411777303
Cl        3.06895793514751    4.23952917404480    2.43706742946206
C         3.31456078128691    3.09048893506532   -0.49184351338222
C         2.45451278275625    3.01530160669526   -1.47301491150540
H         2.77174263049413    2.58281817495233   -2.41786512296066
C         1.06425814711819    3.45891796271602   -1.42613307024778
C         0.21517122807711    3.21377488419986   -2.50394122416202
H         0.59250947281855    2.69956508659400   -3.37713481280014
C        -1.10514018230878    3.62014128527905   -2.46206860534199
H        -1.75324888034956    3.42249492349714   -3.30421774304459
C        -1.59903686158214    4.27722213033824   -1.34757972722127
H        -2.63171935610665    4.59248418706210   -1.31727289639634
C        -0.76005151364338    4.52977574704390   -0.27335607253922
H        -1.13886397429179    5.04450836184717    0.59770614314744
C         0.55976932329291    4.12838653177662   -0.30890249080028
H         1.21638217713980    4.33110870370567    0.52471791167210
C         4.17160118589168    6.68454534095916    0.36770238574445
H         3.55475942540881    6.46710180937281    1.25224010533592
C         4.67382647676306    8.12275688366049    0.49546452473458
H         5.33267228406052    8.24279822681098    1.35617801701622
H         5.22561409773681    8.41888111265030   -0.39702941898819
C         3.47087381694744    9.05221525742670    0.66819085169635
H         2.94468896747812    8.79056994844082    1.58910489025751
H         3.81749889624665   10.08415825093642    0.76221615543922
C         2.50926545879998    8.93248270896950   -0.51044999757708
H         3.01334017626790    9.25905721727800   -1.42374115186825
H         1.64901210727205    9.58621720036955   -0.35358162844520
C         2.04693598024238    7.48789900597655   -0.67588903371827
H         1.38660824336626    7.39875336154307   -1.54093595625992
H         1.48287016196249    7.17842153209242    0.20568430590204
C         3.25341829019320    6.57068743580158   -0.84902693684588
H         2.92617353213273    5.53504192373859   -0.96205223953471
H         3.79234332051336    6.86529568419201   -1.75178727950847
C         6.40069850047558    5.27615831984613   -1.17861077944502
H         7.25862313681976    4.64087732721826   -0.91823446951241
C         6.93137269596508    6.62398452675296   -1.65814508035140
H         7.43829392943466    7.15536475290519   -0.84996239217715
H         6.10527225389336    7.24234017008299   -2.01279286028517
C         7.90647561383427    6.40249154728531   -2.81391309137956
H         8.29028798550623    7.36445367997312   -3.16180634853935
H         8.75562678140676    5.81040932453844   -2.46437181050114
C         7.21757875914071    5.67039841976438   -3.96181840303898
H         7.92896723925297    5.49914967770977   -4.77231356867592
H         6.40888046436552    6.29245685226718   -4.35340761527724
C         6.64375331619391    4.34053237620160   -3.48125286739026
H         6.12653710151268    3.84012860447437   -4.30232149189327
H         7.45616732147786    3.68922621676695   -3.15187999868371
C         5.67644460178082    4.56330728763501   -2.32161874263198
H         5.29538775778700    3.60165306838888   -1.96305568609661
H         4.82615544872192    5.15222169965310   -2.66620600686761
C         6.64034023488709    5.85311894160753    1.66236742325296
H         6.99021436008986    6.84338233628261    1.34105957640143
C         7.85398337265557    4.92925208828100    1.77712209947199
H         8.36739681052295    4.84193146381195    0.81776753467552
H         7.53171674927118    3.92528878199146    2.06840334571693
C         8.83578957267782    5.46232366159475    2.81746705022479
H         9.20716177379791    6.43926379167489    2.49612628026508
H         9.69224749367802    4.78807355192432    2.88913995644062
C         8.16407957439226    5.60029806571262    4.17935837908662
H         7.85245308802627    4.61398645694007    4.53153708985556
H         8.87188559848633    6.00431478674660    4.90641090041665
C         6.94505335504602    6.51020931899193    4.07264473893228
H         7.26686801443624    7.51540912641870    3.78660896553596
H         6.44521900272527    6.58354304991583    5.04095633695896
C         5.96615371539714    5.97541239629724    3.03189593871097
H         5.09499701160279    6.63109163443890    2.97883429790543
H         5.60963817571715    4.99133968484179    3.35212664552744
C         4.40864243182965   -0.39096411977013    0.48552047978183
H         5.50523892318235   -0.39382378231724    0.52109013174215
C         3.90240690374454   -1.78015864356874    0.86576708498512
H         4.13245935735996   -2.00630025319309    1.91027457996403
H         2.81951755836887   -1.83005681621597    0.73457168163531
C         4.55164647272654   -2.82096937904483   -0.04529767893825
H         5.63524929842717   -2.80234421159232    0.09352918405224
H         4.19683926251481   -3.81898638228750    0.22220131970494
C         4.22302230717197   -2.52553023146198   -1.50577667539902
H         4.70760198947055   -3.26096466833840   -2.15116145911680
H         3.14386669659812   -2.60848318940537   -1.65618654097334
C         4.67893970168567   -1.11925152552722   -1.88468840480278
H         4.41032613941501   -0.90856795287460   -2.92180769948450
H         5.76569813575897   -1.05236822213290   -1.80094885791649
C         4.04010559615735   -0.08131408536059   -0.96512316648414
H         2.95772534482855   -0.09424355922916   -1.10300927798522
H         4.40243158616719    0.91858670644300   -1.22122881035032
C         2.25406567529090    0.53529124443483    2.28294811396545
H         2.23745641795386   -0.55075525604613    2.43989001369853
C         1.25494144245496    0.92761444543481    1.19521613279929
H         1.33345872094829    2.00561381235672    1.03493635703418
H         1.50551833956789    0.43502146538783    0.25411485053151
C        -0.17579276000774    0.57813636047909    1.58902635295148
H        -0.85679323441465    0.90169051963772    0.79911483724872
H        -0.27380039319637   -0.50588195779553    1.69683593018328
C        -0.54002051185125    1.25461334353724    2.90490997411118
H        -1.55800812208788    0.98806185008851    3.19675068661004
H        -0.49575478935118    2.33735936179994    2.77454557380379
C         0.44452925383477    0.83806080526128    3.99130962188496
H         0.38189063050490   -0.24311442602690    4.14549764815158
H         0.18896755400255    1.32563061127107    4.93436771325209
C         1.86926570522817    1.21947547855029    3.59515355061468
H         1.92058320472787    2.30186497081679    3.46895645975268
H         2.54838999105485    0.92893494240700    4.39977478749260
C         5.03066376152867    0.64253094074919    3.17053086499287
H         4.46091542686985    0.00931766413480    3.86438116618964
C         5.27090353448461    2.01710943743023    3.80704252960060
H         5.78870069712534    2.65015926682970    3.06037162128974
H         4.31640903224924    2.49082447459111    4.05586593611141
C         6.13374034937846    1.93084255012854    5.05927489411671
H         6.29769195776227    2.93221097358078    5.46580493942245
H         5.60314974494161    1.35012397148752    5.81882887276895
C         7.46456539961550    1.25796724441704    4.74450559873284
H         8.02065106412649    1.86014570770002    4.02109391084411
H         8.07024493084362    1.17964735346414    5.64990194899450
C         7.21167021019694   -0.12616894418351    4.15826137761294
H         8.16130774095224   -0.61412931452335    3.92873964974670
H         6.68916999057927   -0.74150360837839    4.89603619991605
C         6.37301565121670   -0.03329741099722    2.88376569414887
H         6.21625700268080   -1.04172418314935    2.49692525529948
H         6.92517714184545    0.54074105352158    2.13541038866483

