31
CSD_code = VAYXAU | q = 0 | S = 0 | Stoichiometry = C8H9CrN4O5PS2Si | MND = 6
Cr       -0.78972891552327    5.15293576486277    2.35690466143502
S        -0.12287876319594    9.28500914890102    3.95205559489659
S        -2.35131192943773    8.13317757912781    2.56979011238007
P        -0.82775647334593    6.55633771695246    4.45583198306151
Si       -0.54532093568398    5.78629641657948    7.23760752889548
N        -1.23229123592900    5.64938214974232    5.64056987439659
N         0.15530937149219    7.83038534355179    4.61600586013904
N        -1.35150608903310    9.28323135640504    2.98327785653823
N        -2.01527798238084    6.69996720396125    3.33261960809805
O        -2.75324936281228    4.54036539764308    0.14214942867810
O         1.65438000505381    5.21074660532343    4.10685465902002
O         1.14646847808623    3.14189919434657    1.26830265837508
O         0.70537650888115    7.26740668595549    0.82866552951365
O        -1.85831183642672    3.01459741724608    4.19603166468764
C        -2.03964805078200    4.78343376600637    0.99647753430192
C         0.63279506308357    5.34473781385561    3.58096452291676
C         0.35985232161305    3.88942460360925    1.63816002675782
C         0.06756100751190    6.48381932150333    1.36400084052849
C        -1.53465355914461    3.86014813461207    3.51190635285075
C        -1.26257522662445    4.28769621626733    8.15791108764778
C        -1.13656938603848    7.43347306926096    7.99969447245335
C         1.35856175935494    5.74802340583749    7.21863532571915
H        -0.95116747891057    4.30513459141678    9.19589374372902
H        -0.92309501995640    3.35340917493294    7.72395848624128
H        -2.34658468425923    4.28761890829422    8.13390567003583
H        -0.79200335397293    7.54853501021263    9.02202575606710
H        -2.22088071677078    7.49487649480786    8.00492480733785
H        -0.76075662012230    8.27419309824632    7.42241089913775
H         1.76619818803198    5.86789559778018    8.21756237732005
H         1.75038201415288    6.54813032910955    6.59686170555148
H         1.73358290309130    4.80981248364380    6.81953937129262

