36
CSD_code = VAYXEY | q = 0 | S = 0 | Stoichiometry = C11H18N2O4Pt | MND = 4
Pt        7.93726067198309   10.75681854484728    4.44029633212991
N         6.50214453468019    9.35469626313937    3.84508242014650
C         5.73550580673263   10.01124705949649    2.77814904397231
C         5.37415940569040   11.44622284945474    3.19529116134982
C         4.38728527217410   11.52764339005432    4.38286424585490
C         5.14672244977103   12.28962732768485    5.47566667758211
C         6.12687031539949   13.12735692443107    4.66628388212039
N         6.58298017892079   12.15412373448161    3.67084303527022
O         9.28221201487193   12.19865140609496    4.80123169322953
C        10.15347834018089   12.03837412044357    5.74743791214980
O        11.05273396918055   12.82505976228466    5.94750303665537
C         9.93003706193858   10.82734060355614    6.66709228444843
C        10.69262101322244   10.86219015219146    7.99624184643925
C         9.36163033239679   10.80890859222935    8.76100621252932
C         8.58427200511370   10.88664670368492    7.43613002733653
O        10.99176344089596    8.74075102928225    6.12529173154478
C        10.10386324948752    9.52346873643821    5.86804540770385
O         9.21237180825274    9.29721174740392    4.95719005797084
H         6.99802353745318    8.53018682738589    3.50656398242228
H         5.89884450541037    9.06164563101262    4.61312949326955
H         4.81993134647449    9.45964865505280    2.52948103780756
H         6.36599572240089   10.05144937901773    1.88521831813503
H         4.94688999859932   11.95797647673241    2.32292454839190
H         3.49575427214068   12.07920955636282    4.08656737404930
H         4.06730866212987   10.54372030027059    4.72053983216842
H         5.70729263781598   11.59739730088516    6.10843941984959
H         4.49068379698922   12.88893953242872    6.10119604999834
H         6.97340255732171   13.50134433136970    5.24218544402234
H         5.61076642896918   13.96902701794734    4.18749646071529
H         7.08941723607437   12.61228354869126    2.91268989147183
H        11.25882753796310   11.78237102164056    8.12218394599404
H        11.34911573182563   10.00602331710873    8.13316974988379
H         9.18509647883371   11.64359615017430    9.43692606128513
H         9.20510747515749    9.87662856566900    9.30003959847647
H         7.91007562201258   10.04521893336939    7.24957354542013
H         8.04875458153340   11.82909450767985    7.30312823820455

