61
CSD_code = VAYYOJ | q = 0 | S = 0 | Stoichiometry = C22H32O4P2W | MND = 6
W         1.93560831394217    3.22374480677091    6.60155998420439
P         0.53147125301054    3.54202981385959    8.58144579310233
P         0.36653274478018    4.87258049893944    5.69950354032527
C         3.24405503154759    4.60764937134116    7.16672896782870
O         4.15276875190784    5.26472082089995    7.41934628579730
C         3.14310905896065    1.91155751035841    7.44326609007194
O         3.85925413695498    1.14374148726395    7.90852949303665
C         3.00081128025193    3.06378054925238    4.94992786564264
O         3.63628355535398    2.95011098888266    4.00011186922757
C         0.93245414151264    1.64511289844894    5.92943678154789
O         0.56495371652523    0.64882440083809    5.49040200245181
C         1.28360218443983    4.22832632915489   10.15154574947816
C         2.60817750207618    3.52525713229908   10.43377044084423
C         1.52152036302008    5.73029941470640   10.02438378373777
C        -0.53291370670104    2.15462215588402    9.24599129927199
C        -1.64666212683128    1.83633872992759    8.25375519542868
C         0.31228231107021    0.90933106226685    9.49265760169474
C        -0.81281345618515    4.43303591587997    4.31562588054824
C        -0.04737697317775    3.85610186240717    3.12936371547300
C        -1.83923714345530    3.42002983477496    4.81204037731373
C         0.99812054997259    6.54352014008260    5.14190163828192
C         2.26261365937700    6.35909694656064    4.30788833842692
C         1.30575834125845    7.43239988116968    6.34355376308574
C        -0.76997527099576    4.79161165275540    8.25002353236287
C        -1.68946052278640    5.16430532019355    9.22902746725052
C        -2.66892388464388    6.09991682215338    8.95781585551713
C        -2.74218995370163    6.67913458508797    7.69964759502776
C        -1.83519391928793    6.31887416580819    6.72195476087261
C        -0.84343904804341    5.37503110271324    6.98351498084318
H         0.58748134473916    4.03633918986071   10.97927757923765
H         3.03216130647868    3.88435464793511   11.37070642972244
H         3.31973412676017    3.73118712897464    9.63566498769590
H         2.48877581065769    2.44744190985896   10.50460105439522
H         2.04509678484045    6.09965860777122   10.90489953577945
H         0.58928673857358    6.28246259547542    9.92384282460260
H         2.14016028016546    5.93853980683429    9.15340668008376
H        -0.97933649188289    2.48671911412250   10.19276764549655
H        -2.28914366512533    2.69845789165087    8.08316750777249
H        -2.26245200490680    1.02112549626662    8.63079592956445
H        -1.22216495297974    1.52561385808622    7.30187501779190
H         0.91026429905876    0.67859597393820    8.61047033763094
H        -0.33079271416648    0.05548496501001    9.70198706351932
H         0.98031614594324    1.03855630574963   10.34042506120587
H        -1.33348632777227    5.34835961394807    4.00408979900800
H         0.54000318260692    4.61710320455110    2.62182714298731
H        -0.74228507228224    3.43309035008604    2.40507148202838
H         0.62319011491761    3.06344860166035    3.46275753171027
H        -2.52542078928415    3.15765957656167    4.00813618777701
H        -2.42176931003297    3.81487411975188    5.64265159328667
H        -1.33993623542138    2.51084614409940    5.13883468751981
H         0.22235857038445    7.01659656961863    4.52468436183639
H         3.05418180942069    5.92618857939980    4.91744364942682
H         2.60842310279136    7.32105347048495    3.93157967874504
H         2.09695535324817    5.70048980078490    3.45948514496502
H         0.40788350366881    7.68122405320461    6.90557202381577
H         1.76967497115844    8.35978377897427    6.01113028486982
H         2.00150206819867    6.92916174084323    7.01251154930075
H        -1.63758279274111    4.71956825580246   10.21285189378075
H        -3.37593156613334    6.38052540216905    9.72461951293609
H        -3.50647657687257    7.41149811598612    7.48491881721413
H        -1.89736190414623    6.77730492981858    5.74502635563004

