110
CSD_code = VAYZOM | q = 0 | S = 0 | Stoichiometry = C47H56Cl2N3PRu | MND = 5
N        -0.38106997116425   11.86424617301576    5.48036271808647
Ru        2.35110789702564   13.12168269751816    5.36309394507825
Cl        2.19627648839904   13.88332543130172    3.11557050341895
Cl        2.51466954399583   11.95670259283644    7.41013622911003
C         5.98867135202413   12.00486509185056    7.06997836378459
C         0.06587570714007   17.46050584042488    6.35354703708024
H        -0.03060538038143   18.27355166971742    5.64764204914419
P         4.60481501627441   12.77586982461151    4.84843411812406
C         6.64936975880134   12.57326306316221    8.24868541323035
N         5.56387935652435   12.80603706405567    6.17097701950138
C         0.30877590486190   15.37006134195696    8.17372478068484
C         5.93482188267543   10.52688941186548    6.96341004941363
C         7.06259571576613   13.44016933166011    3.72117198276996
H         7.63507023153954   14.06808131020213    3.03948679426583
H         7.13320428995421   12.40996090686162    3.37710274886604
H         7.51320429210447   13.50598849049742    4.71014643974579
C         5.61441079064531   13.91465968924648    3.77714636114031
H         5.16714894763132   13.88480711853868    2.77876047887143
C        -0.23196815954220   10.94293271691694    3.23524266272216
C         3.44484150869384   10.36255547932624    4.45987014976121
H         2.52078694415723   10.94610905374388    4.29450173132302
H         3.56182944418153   10.16917757664624    5.52813714191998
H         3.32072541547263    9.40511492198410    3.95396534456376
C         0.78952185263899    7.51023115998727    1.98464779243094
H        -0.12072345442442    6.94358876995393    1.78455828884371
H         1.51555437057019    6.83325261230184    2.42957387161502
H         1.17625343256597    7.87066833308294    1.03406416788898
C         0.69651229621315   19.13902894894037    8.11194207954106
H        -0.18140697555810   19.53259927459328    8.62544116398252
H         0.91322032922053   19.78649340043827    7.26600389524805
H         1.53333745854943   19.16922003720249    8.80612908814678
C         4.63264511371582   11.14280299069371    3.90245051605328
H         5.56417453244253   10.60998289292525    4.13069262181213
C         0.43908847733727   14.25675215984165    9.16487520515755
H         1.07279055535591   14.56355701913174    9.99248396786502
H         0.87944065914964   13.37764137572174    8.69875707018925
H        -0.53628006879682   13.98378556369409    9.57024878240884
C         4.48080428388499   11.30682722775468    2.39342069867124
H         4.30101527446339   10.33111787095352    1.94112103357769
H         5.37416295594331   11.72905298036148    1.93927010472936
H         3.63269113746509   11.94928598783576    2.15966489743796
C         2.63981669856414   14.93399788137522    5.90086322049380
H         2.34522885508236   15.66574412735639    5.13430633952325
C         7.12531367396144   11.75632255701260    9.27588774929151
H         7.00401796783083   10.68511053841895    9.21219157053578
C        -0.06768814129907   10.77828042487329    4.61519423998358
C        -1.71247650045333   11.92032976083076    6.07901560952331
H        -1.83420579711199   11.10995152607924    6.80304934293244
H        -2.47965051380661   11.80695616105191    5.30571557992193
C         5.52376989269439   15.33922750554816    4.30684781167099
H         5.80920140555070   15.37628149558564    5.35674426005979
H         4.50454628560693   15.70662494756924    4.21131219435555
H         6.18296770143709   15.99569960084692    3.74038121021324
N        -0.38518479898036   13.80287197786993    6.43863849851630
C         7.45049522163911   14.50415490095342    9.45098805070409
H         7.57685255825968   15.57485331850068    9.51731380688880
C         0.55349664976222   16.67997517612068    8.55601231077901
H         0.84846447148966   16.88144538697711    9.57580438299426
C         3.45149241846631   16.97446981901869    6.94916997824171
H         3.15683823454416   17.50371176001255    6.05415486521596
C        -0.19042495231598   16.16602574117970    5.92822004884930
C         0.06936364935929    9.87512240779721    2.40157141880870
H        -0.03484122442532   10.00231592477216    1.33354588559140
C         3.65269654140610   14.92822098921977    8.19346066950998
H         3.52348693856505   13.86298824821924    8.27902781261555
C         0.48815794341273    8.65354290581856    2.90574672738758
C         4.20250999650941   15.63232790459626    9.24390098682578
H         4.49416378443116   15.10737489122211   10.14231640605718
C         4.39221699242062   17.00277385034453    9.15288550905401
H         4.82805927060656   17.54908477020485    9.97730915602058
C         0.41183020831846    9.32924833151112    6.63114144191587
H        -0.57713369603654    9.17896397875590    7.06695801386424
H         0.87609405294201   10.18407706654340    7.12120770038669
H         1.00864140560574    8.44531961106523    6.84298558749510
C         7.91232364944581   13.68480563467977   10.46971776145882
H         8.40054418780642   14.11413986789113   11.33235902900141
C         4.02125913873603   17.66835494781446    7.99375964265306
H         4.17519483932269   18.73501893206385    7.90977737525099
C         6.82474054730148   13.95522019031382    8.35099089985667
H         6.45524741322012   14.58427665250266    7.55676900457030
C         0.44043099582398   17.73348555042545    7.66107706883931
C         0.30730055499477    9.54279114979985    5.15291792899719
C        -0.71711985466762   12.23211470580532    2.65283999434634
H        -1.11617360941793   12.07026259562137    1.65466657298959
H         0.11223527431125   12.93816321697266    2.57432483500431
H        -1.48724757475614   12.68903356526888    3.27109876317899
C         3.24805374571742   15.58130864074596    7.01777431520879
C         7.74734450493183   12.31214938069908   10.37758409900927
H         8.10754817995265   11.67111196248258   11.16904134153084
C         0.58485874216391    8.49987204721655    4.28092698521273
H         0.88722797006318    7.54538965001306    4.68875322825966
C        -0.59241335850845   15.88618506289608    4.51310178544684
H        -0.66584529950115   16.80950234285567    3.94504049404175
H        -1.55568468218683   15.37885840259234    4.47284611981093
H         0.14378351568671   15.24125423850181    4.03136148800557
C        -0.05245589026567   15.12155845578674    6.84781854945127
C         0.34766320572736   12.96181985042563    5.70912404244045
C        -1.72231353260725   13.29748187843199    6.73824073171023
H        -2.48106483237511   13.96820549940701    6.32044363703044
H        -1.87264765722872   13.24312286398717    7.81930498141393
C         6.84461537985386    9.87868896757835    6.13420979866444
H         7.58723020757894   10.45984647303927    5.60376639659874
C         5.00335936716881    9.78050375646894    7.67708460758691
H         4.29473690390815   10.28544991574373    8.31581991893912
C         6.80910760088698    8.50176318049116    6.00287571517152
H         7.51919128558968    8.00562472109915    5.35699360199732
C         4.96563193700770    8.40447226867560    7.53181577503964
H         4.23037864165766    7.83171045344174    8.07778820795383
C         5.86455663044003    7.76345876830169    6.69586240736030
H         5.83364547065568    6.68905331936067    6.58751520153159

