70
CSD_code = VAYZAY | q = 0 | S = 0 | Stoichiometry = C29H34Cl2N3PRu | MND = 6
Ru        8.08365005632553    1.89939456739242    3.52713416490731
Cl        9.79285195094496    2.68609586024449    2.03918789982198
Cl        6.29593707125376    0.99647493135176    4.84888116940421
P         7.41366586733378    4.10808859615309    3.67719323474405
N         6.85855056274521    1.78174370355626    2.01483201186655
H         6.36676462297521    0.88044322304662    1.99200350519374
N         8.64046509711422   -0.02725419409216    3.12695763026609
N         9.35305240628651    1.79823995380535    5.11256050570902
C         8.44290052946928    5.34591365093659    4.62223800504073
H         8.07768790968541    6.34959457016201    4.38065914960147
C         8.30619382402011    5.14722002218704    6.13022892833679
H         8.68883237334405    4.17282212319549    6.42395980105639
H         7.27163551141081    5.22627950187175    6.45663017623638
H         8.88635629918133    5.90892675125746    6.65129366077549
C         9.90473759425218    5.22657362517961    4.20418124256975
H        10.50268635652031    5.99670082983285    4.69077216652482
H        10.01777835324370    5.32270284651615    3.12644677797382
H        10.29925771180915    4.25249492948674    4.48896573319490
C         5.67973751621399    4.53290289738891    4.24364961068340
H         5.63020555959503    4.18439473040494    5.28252679042919
C         4.65096314136502    3.73989287701900    3.44319079548732
H         3.65289463996760    3.92239631629153    3.83939313528218
H         4.85164547258052    2.67331500207101    3.52011660958498
H         4.66110630377933    4.03349319521915    2.39475746589683
C         5.35973995963422    6.02384471952817    4.17673065737546
H         5.52768654906165    6.40740740888367    3.17120191440183
H         5.95319947482845    6.60390347661053    4.87844916305817
H         4.31031106741594    6.17749908677716    4.42514552874061
C         7.41336550081692    4.75216161822474    1.95988832411672
C         7.82345806263532    6.04891118426899    1.66979156690435
H         8.10783525511229    6.71898690948985    2.46465086265843
C         7.90051495452194    6.52068670529826    0.37068915705383
H         8.23489954702264    7.53105819091455    0.18652290520132
C         7.57090792398838    5.68749810588782   -0.68251375592912
H         7.65680323084992    6.03069487113882   -1.70262933727406
C         7.12936304894987    4.40746516334892   -0.41899116910673
H         6.87980860665530    3.75326693718998   -1.24167720791964
C         7.02442049173126    3.92191131049273    0.88811185018087
C         6.50409305494848    2.56044047636886    1.04844512231217
C         5.52761387446574    2.07327142262303    0.05516760664171
C         5.57782495479320    0.75109514409699   -0.38905834574754
H         6.37369768455994    0.10022023113273   -0.05182337208969
C         4.64243685569922    0.27441482824456   -1.28763597728177
H         4.70255709957052   -0.74789923461189   -1.63127969515356
C         3.63275644398181    1.10329958826021   -1.74787329579008
H         2.89982422138338    0.72846277545076   -2.44642104459076
C         3.56946434609835    2.41641832856261   -1.30936438913135
H         2.78214059992542    3.06631635927427   -1.66188287955299
C         4.50945680289447    2.90076103902325   -0.42060764548508
H         4.45149950420517    3.92464554356001   -0.08061264128035
C         8.99039131644066   -0.38059313833855    1.88646577362109
H         8.99192326493412    0.40700119409112    1.14178432029068
C         9.37591649825359   -1.66503546019897    1.55104307390785
H         9.65308353232867   -1.89034522169224    0.53308832795321
C         9.40065671047016   -2.64253046856386    2.53416476058560
H         9.69489619303025   -3.65534400575858    2.30508240246169
C         9.03286966936759   -2.27843986241885    3.82028019045408
H         9.02753752372711   -2.99773213897128    4.62408072502699
C         8.66360721689467   -0.97018370269032    4.07235604055784
H         8.34480107326343   -0.67483130520282    5.06458396444025
C         8.91285364113484    1.79130188023014    6.37798598493697
H         7.85399460634563    1.97387325383210    6.51742854707186
C         9.73028598633473    1.52564291575156    7.46062848939887
H         9.31253990678728    1.52875511346986    8.45522857597141
C        11.07496222263336    1.26124998059626    7.24872313580272
H        11.73955025864465    1.05412587413465    8.07325150931074
C        11.53613548634685    1.27266017127752    5.94115656757319
H        12.57225437761379    1.07730115199908    5.71336633641757
C        10.65209955755359    1.53831883345267    4.91264344237376
H        10.99660511074349    1.57271223449981    3.88457375894255

