43
CSD_code = VAZGEK | q = 0 | S = 0 | Stoichiometry = C16H20ClN5Pd | MND = 4
C        -2.67139540308225    3.78671536388094    8.34533638914126
H        -1.66884937900372    3.63289508422850    8.75875645251190
H        -3.40924784093509    3.76193723681637    9.14345982541277
H        -2.68733089193997    4.77032810853568    7.87658658994965
C        -2.96178794162684    2.72936781942158    7.34224527415309
C        -4.18018468770790    2.10750604848595    7.04750007920175
H        -5.13479095883046    2.32432989323543    7.48066173123556
C        -3.89784395387498    1.14627455814238    6.09601792694818
C        -4.79994438437502    0.16935674084033    5.43474824026293
H        -4.50366189613628   -0.85185975087335    5.67387437289862
H        -4.78057800991441    0.28993180952511    4.35189784070467
H        -5.81698904639371    0.32544039098230    5.78265557701969
C        -1.75582049628812    0.33422293983143    5.04013592714707
H        -1.19868616167617    0.95083012556288    4.31331890294079
H        -2.39947479926739   -0.36247124340612    4.50558797070146
C        -0.79210578009629   -0.37843116431203    5.94583797369679
C        -0.51296168342749   -1.70393250125183    6.22181150922712
H        -0.97423416532383   -2.56514695435504    5.77772117744090
N        -2.01030833361331    2.18943134830698    6.58812207540610
N        -2.57691020619613    1.22660378547246    5.84187158855725
N        -0.00004552199221    0.40457514172635    6.70360779134125
Cl        0.00012219458050    4.62950230645012    6.70359648849419
Pd       -0.00000809782436    2.37307485063839    6.70364465933023
C         2.67117922960151    3.78645364664311    5.06160454104126
H         1.66858932023356    3.63255136301665    4.64833400855600
H         3.40892078500376    3.76154280257525    4.26338861745988
H         2.68717979991909    4.77012048528496    5.53020672046378
C         2.96169611274386    2.72924860870389    6.06481172580944
C         4.18012209283730    2.10742960336046    6.35951152789007
H         5.13469282374341    2.32424383748149    5.92627408274695
C         3.89785280111898    1.14623385240469    7.31105658026784
C         4.80002306816218    0.16937002000035    7.97229426441746
H         4.50370290308180   -0.85186921646245    7.73331697940727
H         4.78078295547591    0.29004203345077    9.05512858274644
H         5.81702144133246    0.32541666891588    7.62424505393705
C         1.75585729530798    0.33409539400572    8.36694313558088
H         1.19870103777690    0.95063157721042    9.09379721376565
H         2.39952433180820   -0.36261665246931    8.90145098778575
C         0.79215833364850   -0.37849356875716    7.46116855869667
C         0.51319600808332   -1.70397036185981    7.18489340506891
H         0.97462014786575   -2.56522044586617    7.62876021425334
N         2.01028047576563    2.18935264293555    6.81903636413181
N         2.57693648143876    1.22655577154501    7.56528107225154

