99
CSD_code = VAZHAH | q = 0 | S = 0 | Stoichiometry = C39H52Cl2N2O3Ru | MND = 5
Ru        3.92100031388857    4.50698846468549   10.83405929930853
Cl        5.23396270687124    6.27528441800248   11.41619238766474
Cl        2.28357917253239    2.92056173329855   11.11119453046508
N         5.66980732238646    2.95022314444594   12.56936354531428
N         5.59566943292739    1.98052180437072   10.62562959224597
C         5.27209987749761    3.09369497640495   11.29648727980153
C         6.27818297168794    0.99223442663544   11.46070252187747
H         7.31237816350012    0.86329300248733   11.11929608947223
H         5.77026783153584    0.02803374743690   11.39621370341120
C         6.18664403757064    1.61335507863800   12.85306722598071
H         5.47637862246352    1.07974310198066   13.49520612523772
H         7.14661224887786    1.66433997381044   13.37089462961782
C         5.66571720853013    1.80096001377729    9.21482495610130
C         7.69250517374736    4.71279844596684    8.62612963692015
H         7.73211518241734    4.72761585341029    7.53978550662803
H         8.53613261263755    5.28151816649874    9.00843092637323
H         6.77890399728581    5.20474900889887    8.95456771329057
C         7.74267891534901    3.28304245350201    9.17085109271225
H         7.51318980886994    3.34793618307867   10.23472097909647
C         6.71702996035944    2.39854612501193    8.50372059623703
C         4.73679027951611    0.98018168214122    8.57017566347460
C         4.87633816882269    0.76441167869854    7.20416405449696
H         4.17154788466310    0.12684557596145    6.69307835036441
C         2.25822512228582    0.68410401491322    8.64859681483820
H         2.17033491498045    1.76228239504816    8.53859856124986
H         1.43960505280378    0.34104317619003    9.27534365608092
H         2.16182290013373    0.22022459315883    7.66973448453234
C         5.90291635666449    1.34972880912146    6.49067446918477
H         5.99719522957073    1.17194050037017    5.42871427647371
C         9.14430021883773    2.68542475693635    9.01345374314538
H         9.16397211886141    1.64938666122471    9.34814232776520
H         9.85924820670579    3.25251399347331    9.60520740225079
H         9.46597833262502    2.71219345988233    7.97558719777354
C         6.81283156096966    2.16266890237740    7.13854949015295
H         7.61243876676865    2.61832785840220    6.57462812321316
C         3.59250466689089    0.33639787959274    9.31120456625309
H         3.56053365157554    0.74021427073554   10.32577326084590
C         8.23664901073741    4.25981282727787   12.90594504216158
H         7.95716646126399    3.51408162655397   12.15899111096407
C         7.03742420749339    4.56785712855203   13.77002555423097
C         5.79128424531706    3.95471352860656   13.57911101246558
C         3.36154105260445    3.60849558384668   14.24429073561886
H         3.40941663828892    2.86945177739158   13.43574503915486
C         4.88911781074539    5.19914861670135   15.42028075482242
H         4.06008798970349    5.45013051998460   16.06415833449819
C         4.71377257948981    4.25425405931110   14.41630809442191
C         6.10521229818412    5.82176162941721   15.60592782572752
H         6.22457286631458    6.55696727619048   16.38806127085488
C         2.92119055212199    2.87848477126900   15.51428324907805
H         3.66777147540519    2.14384752773481   15.81149240381912
H         1.98092372198702    2.36252292771972   15.33363477126608
H         2.77789267403156    3.57172766851960   16.33968074242602
C         9.38347537048498    3.68304613334485   13.74142796418727
H        10.20578884908203    3.38899977431546   13.09214641548976
H         9.05839336464428    2.80879355611161   14.30394817631632
H         9.75620959574723    4.41837052275027   14.44946157050359
C         2.34452163362022    4.68032176461145   13.84215731893297
H         2.18416626152114    5.39433154973672   14.64802166395250
H         1.39378993164515    4.21821278986741   13.58345178970617
H         2.71575431036223    5.23460174894705   12.97162774740400
C         7.16920131254812    5.50255165524100   14.78651645640832
H         8.11786771451665    5.99391429179553   14.93624724364969
C         8.68518135101602    5.51497966229420   12.15596154398832
H         7.84598068697997    5.93201557793793   11.60521240460787
H         9.48466770233690    5.26926381053545   11.46006299353289
H         9.05250037720989    6.27049275786395   12.84509518303341
C         2.16281828003535    4.45877137243105    5.75088124713407
C         3.00690945938232    4.78377192627559    8.02039025001892
C         1.67115368855405    6.16277064556875    9.61847664104341
C         1.85495765368667    5.56615321536082    8.30448594797096
C         4.03177508391366    4.44484446196465    8.93923147868352
H         4.89735625439663    3.99696086767967    8.45239040065923
C         0.90002432436217    5.78478048032221    7.30637755039305
H         0.03757797787545    6.38754478102622    7.54305333212604
C         1.03522328461208    5.24038172849111    6.05519243660313
H         0.29337782714475    5.39431538011343    5.28862641282865
C         3.13159938846552    4.26013707984657    6.71424293753251
H         4.00698957666705    3.66528931508512    6.50300149257841
O         2.35706042284432    5.92505189997382   10.60760811018930
O         0.66790613416520    7.03757313039350    9.69071635379983
C         3.78140807127400   -1.18151988865240    9.37842531250954
H         3.75843036751758   -1.61664409094893    8.38169088712779
H         2.98405320744082   -1.62948133369067    9.96644968892971
H         4.73581067436364   -1.43833594386260    9.83515975147533
C         0.43437377597885    7.66716158752385   10.96305004229220
H         0.48647306750987    6.89196618121083   11.73966635845347
C         1.49422681082085    8.73079041065294   11.23249633809147
H         2.48350909705478    8.28111278656856   11.28533353133924
H         1.28647804589424    9.22301854899804   12.17852627030847
H         1.48829292692015    9.47136929956906   10.43567812556884
C        -0.96708436694522    8.25597420519558   10.89841829111530
H        -1.01406910451489    9.01219114989086   10.11908267928850
H        -1.21987598704965    8.71069009514352   11.85175206020653
H        -1.69177744343121    7.47788623001116   10.67316827276825
C         3.29234581789440    3.13246867661584    4.13329218720540
H         4.23984856819414    3.67863569024910    4.17511169312271
H         3.09828476388662    2.82323846050722    3.10747816324832
H         3.35522756049278    2.24984947380994    4.77688488803685
O         2.20685375138965    3.95459878133053    4.49352167431000

