111
CSD_code = VAZMOZ | q = 1 | S = 0 | Stoichiometry = C60H46CuN2P2(1+) | MND = 4
Cu        8.29753231157421    4.47757787623296    4.07958321464747
P         8.60256269582812    6.69502395447348    4.58947226031274
P         9.93193853761966    3.30327461313304    3.10408487005162
N         7.43614362732334    3.84007244404540    5.83114439061171
N         6.33729840914280    4.50192651188838    3.48370552231749
C         8.00644027853516    3.51838337278837    6.97175278126026
H         9.07051984488604    3.32748475606999    6.93900917810765
C         7.30390481591075    3.42392026156214    8.16671642528160
H         7.82810686049571    3.19131907546210    9.08016545337660
C         5.93723776460318    3.65436435039058    8.18752148738365
C         3.89074409039248    4.09085476100924    6.81064031571821
H         3.26417413792844    3.90629731266050    7.66929997698013
C         3.33266003428961    4.41881881592409    5.61956803138420
H         2.26066784316014    4.49880132285994    5.52540505167964
C         3.60258298652121    5.01831325429731    3.20336208332676
C         4.47314839500267    5.07781555693424    2.12629519303698
H         4.10905573495766    5.35545628802055    1.14967636732191
C         5.82385884343445    4.80827975732693    2.31068705025259
H         6.51449136884592    4.84424217134465    1.47891070534917
C         6.11011033664895    4.05490381282215    5.80726082954526
C         5.52041446378123    4.40492534962367    4.54734253712115
C         5.29949042373758    3.94883274128751    6.95699980847116
C         4.13104565442354    4.63474265623143    4.46107327470024
C         5.20366099593802    3.58909509528913    9.45627270331695
C         4.33923688690449    4.61259715602236    9.84103764545175
H         4.21338468231673    5.47095685933976    9.19791791916519
C         3.67710869237014    4.54869890205730   11.05293280223592
H         3.01604555984970    5.35081049592363   11.34504611264344
C         3.85885510401477    3.46022348368492   11.89026094993410
H         3.33614646274444    3.40956839080033   12.83285119580269
C         4.71701441697458    2.43904981048366   11.51611454480499
H         4.86183327020035    1.58921129760393   12.16551969445049
C         5.39276168407240    2.50551337751930   10.31221833322752
H         6.05097402994556    1.70196085891772   10.01543206675548
C         2.18608779211023    5.35663943953836    3.02194627023493
C         1.56475967038529    6.29073682995212    3.84917470786570
H         2.13566871006293    6.77811105524072    4.62687114493363
C         0.23725706451966    6.62223684461876    3.65198649841868
H        -0.23322085024461    7.35227328584831    4.29319444391742
C        -0.48713938666955    6.02133355583759    2.63547169642278
H        -1.52497737792151    6.27689333725695    2.48782124320177
C         0.12484799793315    5.09581615156774    1.80586500735851
H        -0.43584178508305    4.62741393849144    1.01137520184710
C         1.45564187125609    4.77083519090772    1.99032378564882
H         1.92968863213282    4.04034748890742    1.35089766424808
C         7.72505333129455    7.03684140538321    6.14535926215973
C         6.34761149660590    7.24362772778402    6.08033352563772
H         5.86203386761127    7.29617291323485    5.11358643023175
C         5.61363291139234    7.40301478352126    7.23937181711498
H         4.54906174423045    7.57912748238625    7.18091611723334
C         6.24324145897729    7.34180536498828    8.47315698222053
H         5.67589489035789    7.48074854314501    9.38090630644851
C         7.60660274850337    7.11015998161731    8.54305541342742
H         8.09598579314150    7.05891186454271    9.50417603864794
C         8.34770652353402    6.95164688929490    7.38571891385204
H         9.41332620987534    6.77916117742287    7.44359935719482
C        10.33249992780948    7.11018153414535    4.97103560540764
C        11.08580986789587    6.08320398093729    5.53555411981362
H        10.59596163629051    5.13664707398900    5.73785864899851
C        12.28357947968481    8.50042961427202    4.94149538586719
H        12.75520563157657    9.44259688876244    4.70561820485245
C        12.42553304142640    6.26718145554420    5.81150353641012
H        13.00668730046751    5.46872745549166    6.24871224809229
C        13.02595370284430    7.48010726101400    5.51159157135091
H        14.07491623117513    7.62698013870161    5.71836144492967
C        10.93875694346201    8.32122109874990    4.66580386228736
H        10.36831753285631    9.11771463927222    4.21040022003088
C         8.03686325025148    8.06453317522977    3.53426455553768
C         7.86317298049654    7.81093828047817    2.17786079582484
H         8.05830175943913    6.81611492546111    1.79746628400809
C         7.44232562051785    8.81855738760311    1.32867187496479
H         7.31081560579011    8.61845767550079    0.27573104512259
C         7.19040573185896   10.08382596702387    1.83276207889524
H         6.86173094463886   10.87187945910849    1.17255594974908
C         7.35674599101876   10.34025251293159    3.18541912428763
H         7.15817120398349   11.32710801183610    3.57608699647316
C         7.77670688370579    9.33681624073925    4.03860728062467
H         7.90038317989219    9.53344876690896    5.09500306780425
C        11.43350839651598    4.27612160556897    2.77149029942088
C        11.22910062558739    5.57853081819519    2.32306600131801
H        10.21364335875656    5.93546784880396    2.19285681170604
C        12.30340525380275    6.40382167399621    2.05769854972510
H        12.13746441210805    7.41183805416704    1.70844414549983
C        13.59350021950398    5.93545255172984    2.25071754223817
H        14.43615606479604    6.57962791229339    2.05148183953023
C        13.80252788544549    4.64102907786673    2.69661651719123
H        14.80835299258339    4.27591860036846    2.84097763888196
C        12.72863626610015    3.80713244192223    2.95597097270241
H        12.89753045808304    2.79612801119381    3.29837626112611
C        10.55230737020335    1.80770274555704    3.93175698799677
C        11.15652834449635    1.96900928907061    5.17811053724489
H        11.29006910510120    2.96681655049817    5.57586753074989
C        11.60374442877461    0.86933767874756    5.88375659887221
H        12.08108866455941    0.99990498044941    6.84387652837601
C        11.43966866418684   -0.40313391650502    5.35745999436493
H        11.78890832331764   -1.26320437910598    5.90800922353895
C        10.82828072874530   -0.56927137298338    4.12627830490275
H        10.70036136602292   -1.55982477535750    3.71627582553311
C        10.37984443593576    0.52954178929913    3.41335133197742
H         9.90388615583755    0.39408187929383    2.45276266092965
C         9.45954736401750    2.70249144094127    1.45468638172652
C        10.33606833437400    2.66404705869225    0.37617518301938
H        11.35485861973901    3.00495395370459    0.49437633093184
C         9.89575628847531    2.18640152673875   -0.84583393563429
H        10.57573361034696    2.15308954713164   -1.68379554566287
C         8.58963016550419    1.74850348229086   -0.99664124485832
H         8.25367748852491    1.37626518007459   -1.95250401942905
C         7.71299578744873    1.78911220310138    0.07677803838414
H         6.69482930040872    1.44853851723351   -0.04184691146396
C         8.14474579669702    2.26918759264248    1.29889286479342
H         7.47452471858214    2.31268489314770    2.14915824871454

