44
CSD_code = VAZPES | q = 0 | S = 0 | Stoichiometry = C12H22CoN3O6 | MND = 6
Co        6.65717055606282    5.57550729790936   23.29286644432155
O         8.42455906402903    6.04604595007589   23.16627864951910
O         5.98663439670097    7.32989533854700   23.28802457730487
O        10.23343146113218    6.52867991423160   24.35003280798162
O         5.03527578468106    8.81519894077699   24.63360799296101
O         7.14141523336276    3.79280160411391   23.53398348762771
O         7.28999779023786    2.23413854863837   25.10026415898716
N         6.81750396002190    5.81829488626400   25.19437257819345
N         4.69404702547987    4.90741609631673   23.12734685326601
N         6.65172288694936    5.39194741448511   21.34934393214412
C         5.66437818708892    6.66618102482671   25.56367759504704
C         5.54612649266039    7.74019348568576   24.42116876870814
C         5.73054600097437    7.27781188334533   26.96632932054525
C         4.33677224677244    7.58589177589968   27.53282095175320
C         4.46844427053130    8.54070604206816   28.71719214184733
C         3.61200239900426    6.31598207582268   27.97491074720358
C         6.82789162669623    4.48290902201491   25.81246442911442
C         7.13664066109318    3.37903276373948   24.74501846592882
C         8.08226619573301    6.54454803190529   25.44212649859084
C         9.04524753579618    6.34884756951516   24.24827084681841
C         4.57745373569867    4.28825199206255   21.79656572511196
C         5.30427404333993    5.20186712210934   20.81561168499758
H         4.76013119858345    6.04973072470851   25.49569824711481
H         6.29044136323077    8.21322387676436   26.92724602063295
H         6.24725488395920    6.59366098210692   27.64407117859088
H         3.75784113853822    8.08514987115579   26.75047731594183
H         3.49067702414788    8.75988212901149   29.13876433363605
H         4.92118742053188    9.47681030063190   28.40169407881886
H         5.08728053029498    8.09958826931518   29.49622571147243
H         2.63117340868788    6.56396076232892   28.37282393434698
H         4.17741279617323    5.81083352640883   28.75600862124429
H         3.46692846747245    5.61846638419297   27.15185006786515
H         5.85035867096418    4.25062196842019   26.24371931163319
H         7.57243241543764    4.39969613768646   26.60726275933290
H         8.55623687858852    6.24601754772714   26.37896816011943
H         7.88916174042899    7.61934603574223   25.47303388101287
H         4.38498742048872    4.23842944535085   23.83012340553552
H         4.07329899843384    5.71700612241983   23.16741917880903
H         3.53162429111437    4.14146240465138   21.50479851461391
H         5.08247778357639    3.32014433397285   21.83283690369157
H         5.31272807540478    4.76746835138599   19.81035787128115
H         4.80726198634701    6.17479942678304   20.78212064751381
H         7.11634995003580    6.19818278787566   20.93397286709323
H         7.23605200351256    4.57446983100551   21.16834833172583

