47
CSD_code = VAZSUM | q = 0 | S = 0 | Stoichiometry = C18H24CdN2Se2 | MND = 4
C         4.98596774484262    3.51451727242125    4.26421424359087
C         5.93905647352166    4.53569341402650    4.18379185369158
C         6.60687193336710    4.91070083427810    5.34351539697177
H         7.33328560123766    5.71091444281278    5.29558235909103
C         6.35108595050361    4.29841324792953    6.55773099098078
H         6.88465532897041    4.61049086520088    7.44274040467831
C         5.39409049608156    3.30077463672092    6.63121763493072
H         5.17152159810339    2.82673406435353    7.57571465901195
C         4.71436009109471    2.91817896132210    5.49094803856647
H         3.95260533957985    2.15269923725887    5.53956610889552
C         6.22156234168488    5.25822626734217    2.89314379339254
H         5.27992956944383    5.36756091607783    2.34365707368267
H         6.61363256907809    6.26472511870851    3.11053878784523
C         8.49878221781400    4.52673194552281    2.62497426860090
H         9.18075978760758    3.94687571756951    2.00112441809719
H         8.45792658521730    4.07643484678542    3.61677620490743
H         8.89311807464242    5.54886546050240    2.71950361640852
C         7.22867534832512    5.17659989466999    0.71814755135662
H         6.24111574658009    5.16585195129993    0.25043182429983
H         7.92496562021401    4.63291877782020    0.07766554615182
H         7.56864043614982    6.21800824524694    0.80342061893120
C         9.01634335660302    1.49535998725394    0.45138226089026
C         9.21666873683684    0.73772846965720    1.61044981833940
C        10.45752294374809    0.79699526718996    2.23372980687173
H        10.62865420155687    0.20091675739692    3.12001068540256
C        11.48198323325900    1.58301242496147    1.73649135204103
H        12.43597507839989    1.60950187913401    2.24110448952411
C        11.27989697625157    2.31698602499187    0.58022861679391
H        12.07551556217317    2.92246784427265    0.17195848223751
C        10.05565795106493    2.26652856530630   -0.05799794315628
H         9.89202652892987    2.82108945185786   -0.97135548026125
C         8.14509223474096   -0.16291166320178    2.16577083127309
H         8.60904609880925   -0.97301883925396    2.75098066909314
H         7.60096809799055   -0.61264520567887    1.32773928938597
C         7.80121785711928    1.01613607912531    4.23563018540959
H         8.14947214711742    0.16557815183572    4.83934711242110
H         7.08564022801256    1.59129292420891    4.82527165601982
H         8.65650316808060    1.65004689695398    4.00156504415022
C         6.05395898187181   -0.32447294954925    3.32898933894226
H         5.55954672577654   -0.65622001869411    2.41257933499390
H         5.32998187762924    0.21567864433651    3.94126573870676
H         6.39654510961237   -1.20757594101201    3.88599238489040
Cd        6.16998433522056    2.31636908490702    1.58149198150217
N         7.16644120529067    4.52929700854792    2.02834741567983
N         7.17004035853483    0.56191368419399    3.00007126704673
Se        3.97603483422301    2.91401728936906    2.73744297955773
Se        7.35367331707851    1.48561206402471   -0.52189271183221

