61
CSD_code = VAZVUO | q = 0 | S = 0 | Stoichiometry = C29H21N5O3S2Zn | MND = 5
Zn        1.48405214108088    3.28454594791568    1.78366773620821
N         0.92029653953030    2.68344166773619   -0.20905696209790
N         5.24792384210242    4.90305197652970    2.64399870517394
N         4.51508793670246    0.53846785119347    1.99008658236598
N         1.52316450348879    8.06599050156260    4.42009459092111
N         1.14997599955699    5.10770198424118    6.93465033551772
O         1.79708352024663    0.91055553653082    1.55950516506810
O         6.25508424995658    2.60110439677467    1.80411400687099
O         3.54734165474773    3.11643333065864    1.57060804047292
S         1.19557187473420    5.62215703794855    1.80120832935009
S         0.95825138901104    2.95393679426828    4.05083360690284
C         0.45925469683191    3.57165441834197   -1.05587030562425
H         0.20787833576400    4.53997114286536   -0.64637154808620
C         0.29568789516712    3.31147126603983   -2.42265891702556
H        -0.09440664313988    4.08253806200387   -3.06736802653509
C         0.64218242446978    2.07923919345319   -2.90847160709500
H         0.53779516965248    1.83787779195892   -3.95630812011082
C         1.14752878709401    1.10262237836376   -2.02519070292276
C         1.53154165957359   -0.18675126978863   -2.44458432726943
H         1.43878002632380   -0.44667589588258   -3.48769714011909
C         2.01243860357694   -1.08404442089839   -1.53367440827539
H         2.31163871462050   -2.07205216815151   -1.84900093627323
C         2.12427796855100   -0.75114976867917   -0.17661587888935
H         2.51045557911316   -1.49174201417417    0.50537248673207
C         1.75442580318247    0.49503756821554    0.27400821367880
C         1.26476661363895    1.45741283696201   -0.65599948009660
C         4.75947736031299    6.00609687768265    3.14450202247965
H         3.77917170762084    5.93541979306100    3.59366691359193
C         5.43371304737646    7.23691764935375    3.11585703029015
H         4.96679328822094    8.10742926703280    3.54730504519287
C         6.66091458281571    7.29294428635132    2.51349382289668
H         7.21014973555938    8.22115586210070    2.44255973991165
C         7.22779091845543    6.11884224284645    1.97080848191171
C         8.48491249717253    6.08960985104453    1.33370087496179
H         9.05275782408557    7.00404595941855    1.25279185333017
C         8.96388464712357    4.91573966188591    0.82820992314409
H         9.92111444347060    4.88780448834758    0.32943971998834
C         8.23925747095054    3.71984443915918    0.95163168678637
H         8.66736084104232    2.81756808556213    0.54336225499774
C         7.01803168069231    3.70273536686270    1.58072472902939
C         6.47255726933685    4.92430489622631    2.07986086744635
C         2.22019365856412    0.01733473514311    2.56670035567679
H         1.59308000900133   -0.88321081020058    2.56933354436183
H         2.04429284608978    0.56512108726460    3.50074900852314
C         3.67978367400207   -0.35919287422285    2.49426214096771
C         4.11598252058547   -1.59001976856959    2.97527846177732
H         3.41223249148484   -2.29721763100981    3.38531310492040
C         5.46876976747883   -1.87654502685191    2.92171562388253
H         5.84371377296167   -2.82068384433677    3.28697532210825
C         6.33689176515057   -0.93060527645406    2.40060407549791
H         7.39751971660360   -1.12012221940996    2.35368200809901
C         5.81383552430427    0.27477000711896    1.94779251670367
C         6.72025586395841    1.34233359066636    1.38458553139358
H         7.74466318495308    1.16248029516271    1.73693172072068
H         6.71401464478261    1.28014522491240    0.28384423772882
C         1.34321298501311    6.99350029174846    4.04814635382157
C         1.18192439207162    5.69352063645907    3.53980112398534
C         1.08564201110684    4.64789428183022    4.42400822850082
C         1.11501177597686    4.92304916118857    5.80104616860308
H         4.17848440469299    3.74668308972544    2.00510432096544
H         3.96592839140072    2.23921017691498    1.68713174694513

