14
CSD_code = VAZWUP | q = -1 | S = 0 | Stoichiometry = C4H3I3IrO3(1-) | MND = 6
C        10.61928256169392    4.58979295921742    1.51553209908734
C         7.46723327795897    3.26072148259250    3.10761358827511
C         9.17033501829466    5.59195993025252    3.77670180518964
C         8.09945390841029    5.69067557024559    4.83974563620617
H         8.32434523645953    6.53693246646813    5.48963581048235
H         8.06398999472392    4.77942496058640    5.43437799247832
H         7.12531217344588    5.84220273587718    4.37704558425852
I         8.95606715678412    1.95856261534594    0.52806143114829
I        10.51659781227452    2.73643474211288    4.35184299342481
I         7.51923195810241    5.87404504067989    1.03912178682412
Ir        9.04307748378758    4.03656131198020    2.41768287157253
O        11.54824356705177    4.83438627514522    0.90563872037973
O         6.52291037964900    2.70656331624104    3.43404075221414
O        10.07531947136322    6.36983659325508    3.69385892845887

