139
CSD_code = VAZWEB | q = 0 | S = 0 | Stoichiometry = C60H64Cl2FeP4S8 | MND = 6
Fe        2.82640530201642    8.42264200945901   27.81738134356993
Cl        4.14246008456418    6.94191214086578   28.77566891415695
P         1.10705534775173    8.40414539819096   29.22538869820637
P         1.74073644050190    6.84564024974761   26.69069675521117
S         0.22833183243157    4.91416007647474   34.50913548594507
S        -1.24944623807529   13.98434362759991   31.20684787172042
S         3.58695591128187    1.06297155810522   24.75066752217518
S        -1.01821067399945    9.08195776644495   21.39684822046964
C        -0.27422580707619    7.56012764694007   28.32437305470611
H        -1.10634675431459    7.36283648997176   29.00817421520876
H        -0.61788079224528    8.18953165773511   27.49925493514402
C         0.35417010539500    6.28894708902705   27.77386956123590
H        -0.34514064261535    5.65023311870386   27.22623773953383
H         0.79534025707436    5.69457368265107   28.58413615038544
C         0.91688409124078    7.40937028107992   30.76073926641715
C         1.75858636958612    6.33561106049313   31.02596195005249
H         2.58646803779878    6.12779828373103   30.36519291078482
C         1.58171734015370    5.54692291088434   32.14829526442096
H         2.26207697135637    4.72795881792464   32.32036531488561
C         0.54575399572130    5.82201216001465   33.02813558708957
C        -0.31701932641512    6.88413987587375   32.75966557538927
H        -1.12747367339035    7.08709684103541   33.44377190116323
C        -0.13765353285959    7.66287869386826   31.63847350254867
H        -0.81858381415923    8.48031198795365   31.44570379660929
C         1.48016821066803    3.59925866980604   34.49726946900140
H         1.28876125892695    3.00745434484844   35.38696571684728
H         2.47597810323538    4.03012256146915   34.54986346844722
H         1.36234107175748    2.98245696732233   33.61116035301811
C         0.36559884768426    9.97644276160501   29.76835443785901
C         0.81688846617876   10.58044174843182   30.94223434295308
H         1.56580695395997   10.09320055498304   31.55056144886075
C         0.30207395954607   11.78817728689549   31.35749204999968
H         0.64940805216167   12.24813359091728   32.27020475940373
C        -0.67031867163908   12.43284131653228   30.59761494901316
C        -1.11981392705288   11.84666533923422   29.42403028197864
H        -1.86633244483340   12.32532775998065   28.81026771887026
C        -0.60553643750159   10.63009619928177   29.01890424097504
H        -0.96429818748715   10.20510536900263   28.09503342323332
C        -2.70160862240143   14.34361467306195   30.17324952796226
H        -3.14852241863842   15.23645592099776   30.59941414561216
H        -3.40297592981569   13.51647875562838   30.22703052560672
H        -2.40252968687191   14.53706991287064   29.14674392779905
C         2.32479758275947    5.21327742210895   26.12299391387134
C         3.05080195527301    4.40401702505027   26.99055500127165
H         3.31017647368000    4.76778914657582   27.97243826669069
C         3.46583851923477    3.14298921189817   26.60996040286972
H         4.03076543670693    2.54705493744419   27.30903346708170
C         3.14778150403588    2.66063599789630   25.34778430820935
C         2.41535462281987    3.46330782483364   24.47551122361245
H         2.16826919540069    3.08212046301574   23.49581290860117
C         2.01321287705092    4.72392839037116   24.85506986320303
H         1.45353567396562    5.33035239112090   24.15803645876175
C         4.67349975372801    0.39729884596416   26.04153793527427
H         5.02820842220301   -0.55576077136677   25.66218368385213
H         4.11651214473129    0.24533999703542   26.96159538467479
H         5.51133344220319    1.07149299961103   26.18778756067103
C         0.86157259919502    7.42722830612389   25.20240671323113
C        -0.48767044367236    7.24617611810493   24.90992636967830
H        -1.14095516319741    6.70715694951094   25.57939877907381
C        -1.01844877032165    7.76065664631576   23.74451387602499
H        -2.06620828983601    7.62689225125633   23.51926252129734
C        -0.22118699402993    8.46471851874673   22.84521556987317
C         1.12784500087597    8.64045112159167   23.12257041128968
H         1.78107316966406    9.17728235969736   22.45311739281222
C         1.64434254296796    8.12556360590163   24.29163561988133
H         2.68644920641465    8.28542958492616   24.52979250248249
C         0.25458969601328   10.11174014147370   20.61197153428072
H        -0.23259604931376   10.58478391064739   19.76490549612751
H         1.07835027717918    9.49418700275189   20.26531166063459
H         0.59447151814979   10.86669797689734   21.31492287085554
Cl        1.51021125323262    9.90260781606728   26.85798542884173
P         4.54540155171356    8.44142642586402   26.40894055116164
P         3.91196093129966    9.99991478839364   28.94366186195805
S         5.42343829729152   11.93038627394969   21.12439313123244
S         6.90243606471375    2.86114826769416   24.42850582187096
S         2.06552486611497   15.78225253111326   30.88397130748226
S         6.67090562365492    7.76421732876111   34.23771698433846
C         5.92667994515857    9.28555656160999   27.30986548090253
H         6.75884614561851    9.48280135292599   26.62610849015395
H         6.27031138116993    8.65625652572229   28.13508297217912
C         5.29826574222325   10.55675379543157   27.86027937707761
H         5.99752282191795   11.19560906048061   28.40781014662437
H         4.85689753551584   11.15098879864778   27.05002048877316
C         4.73554495974846    9.43606918396237   24.87350330455517
C         3.89356873483122   10.50955405294270   24.60799339508327
H         3.06561489241188   10.71727675256925   25.26870870070715
C         4.07026634879056   11.29798732253957   23.48546352397203
H         3.38974883785048   12.11676921396488   23.31314724283208
C         5.10629170956695   11.02289715327592   22.60567522169027
C         5.96930579645740    9.96104365831971   22.87441266233893
H         6.77978349177322    9.75805287763998   22.19034377534148
C         5.79013785725297    9.18257596489237   23.99583739061481
H         6.47124699688054    8.36533663824916   24.18879580423128
C         4.17168077854867   13.24536697026804   21.13616026518224
H         4.36267870479055   13.83666609074428   20.24604006715683
H         3.17581721010986   12.81454790013949   21.08429722865899
H         4.28999924909984   13.86263865090206   22.02187670121405
C         5.28707442908972    6.86919758212535   25.86616555781123
C         4.83592662560266    6.26500371760817   24.69233308494951
H         4.08703283167862    6.75210973703003   24.08387664143474
C         5.35083432222413    5.05723699954713   24.27729119706055
H         5.00360188949203    4.59715116576013   23.36460625461657
C         6.32317163638161    4.41273250344172   25.03736804147811
C         6.77255672409205    4.99912208555944   26.21089132920596
H         7.51906332029014    4.52061122185315   26.82478062051232
C         6.25820054053330    6.21572778581177   26.61579220425946
H         6.61689497721420    6.64089730333230   27.53960604950486
C         8.35452424241843    2.50230363131107   25.46235394510635
H         8.80152738041663    1.60932813558635   25.03657747116475
H         9.05583466378504    3.32947114322534   25.40831656997648
H         8.05534803659642    2.30923061029498   26.48890208195310
C         3.32777358319953   11.63211276068371   29.51152498171505
C         2.60203034093087   12.44147787362182   28.64381488589492
H         2.34302236068050   12.07771073014708   27.66183604246690
C         2.18692865731327   13.70244763517864   29.02441119439517
H         1.62215278655090   14.29853554360870   28.32533974953153
C         2.50471744484507   14.18467226471255   30.28672965526021
C         3.23690462145831   13.38190836532212   31.15909986810726
H         3.48384131076345   13.76297064076089   32.13888104442083
C         3.63907533165250   12.12128381547745   30.77955384622283
H         4.19861304391174   11.51482997126384   31.47667324670784
C         0.97923291663457   16.44831239933714   29.59307096513251
H         0.62511801860722   17.40159580373976   29.97241585412816
H         1.53619311795517   16.59992631825240   28.67294740564903
H         0.14099042733094   15.77460770541608   29.44692907194199
C         4.79124179024017    9.41838720659813   30.43188748226365
C         6.14035140708516    9.59997881392431   30.72460157085073
H         6.79353984767290   10.13925648708355   30.05523725377345
C         6.67110628270661    9.08569453706571   31.89011483135123
H         7.71874884160634    9.21994121987727   32.11562615867097
C         5.87395463091095    8.38125619961058   32.78921850061642
C         4.52504568093794    8.20497670295410   32.51160883699873
H         3.87190076410247    7.66786045927729   33.18090643165895
C         4.00855817221866    8.71972193903675   31.34248665911871
H         2.96656671716457    8.55942742244125   31.10408565270520
C         5.39782534508561    6.73503748442804   35.02292642002376
H         5.88469794544537    6.26261992470782   35.87051737443577
H         4.57397588135455    7.35289352732270   35.36882822760115
H         5.05814804984951    5.97955513483358   34.32043639272287

