55
CSD_code = VAZZOM | q = 0 | S = 0 | Stoichiometry = C26H24Cl2N2Pd | MND = 4
Pd        4.45016155741257    3.81877388133162    4.44200064658734
Cl        3.43590899783888    5.50698209356876    5.51515076352152
Cl        2.56292242733500    2.62442948690480    4.18146874822354
N         6.24896237862306    4.80519681260333    4.99477676656104
N         5.40423319084302    2.26828008720302    3.33658723810866
C         7.31097558395711    4.84653054299716    4.05778631635444
C         7.65543909815681    6.07048686862952    3.48810357078640
C         8.67026121439875    6.16564478240195    2.55503159439246
C         9.37511597948807    5.03197913724452    2.18821227648763
C         9.04185771337842    3.81123580471538    2.74510151026644
C         8.00450917638625    3.69144792503583    3.66547824729508
C         6.47459552762563    1.69845543368278    4.06680366187574
C         6.27823566402123    0.46160202902414    4.68040816062022
C         7.28338460653103   -0.14182650112233    5.41124295877527
C         8.52054739259206    0.47131559534041    5.51774143597257
C         8.72357425734979    1.70257514854693    4.92334655093005
C         7.71065351020740    2.34673335176058    4.21754286746880
C         6.59504436278201    4.34902320175490    6.36069206762180
C         5.62296785359425    2.64296978159699    1.92557976197144
C         7.55441367160011    5.32935922993639    6.98424159041879
C         7.07809732169362    6.55646395186450    7.43196314788628
C         7.95161930303800    7.49884197626508    7.94293297664482
C         9.30823167723326    7.22511532638336    8.00550066191249
C         9.78800082408490    6.00589575127145    7.55924087847986
C         8.91432111537368    5.06208067559919    7.04755810193249
C         4.43361027789368    3.46894420339190    1.49986192207890
C         4.39196687475569    4.82894228001139    1.82965383843519
C         3.23749889976101    5.56240935331048    1.59750259232686
C         2.12716087688677    4.95084273190340    1.03545382309878
C         2.17737912215473    3.61527689582787    0.68040947490158
C         3.32341233289731    2.87444272415041    0.91879987056655
H         7.11455005706647    6.95697635210506    3.79011886219408
H         8.91719169107282    7.12435000664631    2.12590202627302
H        10.17918826648921    5.09669079243502    1.47177489176041
H         9.57796975708848    2.91938904597189    2.45372437184741
H         5.31493262166546   -0.02039368899270    4.58530036507069
H         7.10520699230583   -1.09545681791044    5.88338210267361
H         9.31992479680832   -0.00174825137209    6.06663298169306
H         9.68001592854967    2.19719798298858    5.01717077702831
H         5.65928247996691    4.31040486088839    6.93757093421066
H         7.03660439712376    3.34997116401190    6.31633425333322
H         6.54604147918982    3.22236449353346    1.84131284607534
H         5.71559994917755    1.73949937496579    1.30842181359781
H         6.01815023296526    6.76490140243630    7.38357321111372
H         7.57443941140362    8.44795509388200    8.29332408698179
H         9.99059389304870    7.96107508119648    8.40392819619815
H        10.84495319276425    5.78934349483989    7.60845825361538
H         9.28844824884491    4.10937351640043    6.70114168233347
H         5.29038929141957    5.33130642160220    2.18764457666803
H         3.20553392476778    6.61006023846472    1.85858220811287
H         1.22315960211708    5.51888206246177    0.87666043084883
H         1.31503440260067    3.13874272792234    0.23970963569640
H         3.34582180574503    1.82337664741249    0.66860162150040
H         5.83500238648385    5.74075740505391    5.09471831928954
H         4.58250240143389    1.65113002994820    3.37453752937210

