77
CSD_code = VEBCOV | q = 1 | S = 0 | Stoichiometry = C31H39N3O2PW(1+) | MND = 10
W         6.02465053141668   -4.52734073654921   -7.88791350919087
P         4.52579099444373   -2.22246982107348   -8.02985924150488
O         7.17117973460307   -3.23045357784452   -5.28897412410537
O         7.89391570989477   -2.11596880837385   -8.56465667509067
N         4.06057450514924   -4.50364587567482   -7.19206609947304
N         4.01343651347167   -3.75992855835251   -8.33392375687934
N         4.60062196980814   -1.53867597218883   -9.51577449553883
C         6.68471608247067   -3.72082952539945   -6.21283189299624
C         7.20647018640547   -3.01578125534314   -8.34036422024343
C         5.48333186019899   -6.77309214840932   -8.24222307097200
C         5.60726337548313   -6.15187633414475   -9.52568301621811
C         6.94021313222547   -5.68743467761457   -9.66960462927917
C         7.65468993336228   -5.99849963939175   -8.44514827363201
C         6.74543165674662   -6.70029785360671   -7.57924346164314
C         4.30721247615927   -7.59508502247676   -7.81254178087468
H         4.39750831670978   -8.59538584958381   -8.24066859062535
H         4.25947086377227   -7.69690811440444   -6.73023414541422
H         3.36760574692310   -7.16900549578212   -8.16283793451582
C         4.55150202324101   -6.20747665735243  -10.58960947339098
H         3.59038399976300   -5.84269287830176  -10.22447367407241
H         4.83439543752813   -5.62104368345255  -11.46060380187001
H         4.41347640689387   -7.24106743268034  -10.91108535419863
C         7.58685769400191   -5.19772674250873  -10.92909730419923
H         6.86790327094732   -4.72389569681991  -11.59319367490241
H         8.38223487573891   -4.48493434758840  -10.71779491936964
H         8.02938029227284   -6.04412863571218  -11.45769049876005
C         9.14585986765927   -5.95288998529348   -8.26906554426808
H         9.58771336809614   -6.88721426629656   -8.61937088192286
H         9.58736101410865   -5.13549054105362   -8.83623021500622
H         9.41104892007769   -5.82444087036621   -7.22078369609178
C         7.13941492387487   -7.42847380778579   -6.33131748768375
H         7.84913611268865   -6.84775354157910   -5.74446244839126
H         6.27505346360459   -7.65159889061634   -5.71022599204776
H         7.61845568641611   -8.37190209197282   -6.59843254337627
C         3.09095030482312   -4.62186616187241   -6.35009669648470
C         3.23919796513941   -5.52949276793670   -5.20914104128154
C         2.12844154177121   -6.22531009142638   -4.72586593196148
H         1.16494317163921   -6.08817816149686   -5.19359749919488
C         2.26532335757024   -7.10523687211786   -3.66883554717091
H         1.40350787315203   -7.64414488028686   -3.30700174678500
C         3.50253945491155   -7.29360813658798   -3.07253615935972
H         3.60395020030068   -7.97458640223674   -2.24187680013528
C         4.60882138570698   -6.60208104188354   -3.54216928111936
H         5.57111305675878   -6.73735498478733   -3.07223284109207
C         4.48285483026282   -5.73156948896383   -4.60820470558055
H         5.34105080066814   -5.17752157897726   -4.96384956840168
C         1.82881910679197   -3.88641555366832   -6.51187800670659
C         1.22648014478577   -3.32864923621480   -5.38146627390096
H         1.68398158307544   -3.46236132018507   -4.41273554355369
C         0.06758385982919   -2.58755685204723   -5.50708362233908
H        -0.38586778154433   -2.15286875548296   -4.62985853262697
C        -0.51368235783309   -2.40574136827133   -6.75250544938857
H        -1.42194468671618   -1.83096101539675   -6.84613086727987
C         0.07035739088190   -2.96800894363370   -7.87587197103143
H        -0.38715421343722   -2.83927802470814   -8.84506084095699
C         1.23767819399327   -3.69954350860690   -7.76153366689099
H         1.67398286749765   -4.15455758089922   -8.63838710009579
C         4.63414522820154   -0.06935598248997   -9.56139033765406
H         4.62741639002240    0.22310906792462  -10.61320165613761
C         5.90382010560796    0.46002361907580   -8.90493067946375
H         6.78837660395209    0.07201306157188   -9.40262975094858
H         5.92687217327215    1.54506612542954   -8.95508633468227
H         5.93498143353142    0.16013209586975   -7.85764771568119
C         3.39156970062723    0.50556455516104   -8.88743701858361
H         3.39828988493830    0.26744685265887   -7.82422508750626
H         3.36941091768499    1.58607686166550   -9.00057427879055
H         2.48917566292673    0.09009772893438   -9.32999782223439
C         4.56792319068385   -2.30064254079341  -10.75929791180115
H         4.69878598121841   -3.34887513313406  -10.46180118952637
C         3.21232144213005   -2.16057795468911  -11.44771575835302
H         3.04804510374623   -1.13845111228446  -11.77883867597619
H         3.16566596859815   -2.81202693892092  -12.31629879284138
H         2.41629158871966   -2.43521812494881  -10.75936081591948
C         5.71878751879706   -1.92189944427470  -11.68964717192291
H         6.66582487711207   -1.95451890405972  -11.15665101487954
H         5.75971565413120   -2.62331786914639  -12.51924739381963
H         5.58989157790332   -0.92784390028009  -12.10821447222371

