85
CSD_code = VEBHIW | q = 0 | S = 0 | Stoichiometry = C31H50ClNORu | MND = 7
Ru        8.93690880871712    5.55680356857358   13.70555266665874
Cl        7.90031568482738    4.31990446960649   15.50017762555173
O         5.96081606430111    4.25977988320336   12.50181714653145
N         9.80914778863712    6.29215663548686   14.95251020892511
C         9.46054921058973    4.77912491372366   11.73933141902596
C         8.39886934484873    3.94878435793107   12.18110145965933
H         8.42883042615402    2.87268830766409   12.26058260935604
C         7.22195528195556    4.72243995250924   12.31430445004001
C         7.52987837048842    6.08676294790441   12.03781037106650
C         8.92137095370112    6.12794677746245   11.60807830033069
C         9.56626596403992    7.24729553642662   10.82780230087510
H        10.64202957959917    7.20921082068568   10.98005684821404
H         9.23961976626996    8.20492660284290   11.22399905796399
C         9.29429437023550    7.23216070341837    9.28473077406221
C         8.46942053517094    6.02124379350128    8.84443833594116
H         8.97454548052499    5.09004506275127    9.07985504910688
H         8.30721673504811    6.05865037168920    7.76883953298672
H         7.49980633391885    6.01080394807779    9.33469817589732
C         8.54763853343174    8.50366999602888    8.86578881892479
H         7.54332240640680    8.52568264884879    9.27939611324615
H         8.45893482548356    8.54389454013566    7.78178674991967
H         9.08147946474406    9.39377353479510    9.19352535423577
C        10.63543263317484    7.23007301910164    8.54142322362573
H        11.21860327155770    8.11036848563517    8.80546027287044
H        10.47197488081991    7.24203049281874    7.46566142171490
H        11.22198931852623    6.34674490249177    8.77989091219076
C        10.86001069706082    4.20261765480446   11.53928385434365
C        11.02017255070616    3.59683270015207   10.13810653700862
H        10.22167818003164    2.88565850484417    9.93451704044871
H        11.97141839872374    3.07215521355878   10.07436312715360
H        11.00498636182657    4.36156000591746    9.36695510531764
C        11.96107392062469    5.24366674276732   11.78953307402783
H        12.11779440778371    5.88305412746289   10.92561409225914
H        12.90516849364984    4.74253163447913   11.99313801421963
H        11.70786676143624    5.86153249165964   12.65537734069007
C        11.06184984065813    3.06690456052163   12.56270701073318
H        10.74652360363969    3.38401187529220   13.55787265442627
H        12.11205103817823    2.78669033641172   12.60551913020314
H        10.49900456198830    2.17876798563307   12.28756045196814
C         5.82176710802779    2.95108214058896   13.02410180769617
H         6.14720476529240    2.19840101327077   12.29820942931904
H         4.75884670312642    2.82457219611261   13.22129002614578
H         6.38357847337415    2.84512390505389   13.95644593508560
C         5.75478322667870    6.90978455947054   13.56410816344638
H         5.12843210101858    6.02609041233607   13.50915065495932
H         5.12339245005032    7.75728794786954   13.82192910939037
H         6.48408008913295    6.76421478052956   14.36274400551399
C         6.47068901447031    7.17011826006876   12.22435732486950
C         5.43361771743199    7.08677872567076   11.09602756132008
H         5.87420409443351    7.33371988835991   10.13252447264852
H         4.62301501182118    7.78628550807301   11.28914602409873
H         5.01987214117572    6.08283555957206   11.04294644990009
C         7.04158256575433    8.59050547099003   12.30392914864958
H         7.88286310285429    8.62676685026939   12.99573092991709
H         6.27185357428374    9.26453795979642   12.67537235246420
H         7.35296166324814    8.96280942931650   11.33411709665002
C        10.26777676022966    6.67224393635474   16.15114487722167
C         9.62874981338795    7.72455872617527   16.85926139262098
C        10.12270714663908    8.09559019330465   18.09535630753875
H         9.63768779833882    8.88610737375898   18.64719350616294
C        11.22157074687380    7.45868842210662   18.64578678117040
H        11.58700914391708    7.75826095981158   19.61696282743773
C        11.84643026011631    6.42991372654117   17.96105304188007
H        12.69307765671866    5.93495500115570   18.41055836545543
C        11.39731510496899    6.02308360279720   16.71945082296422
C        12.02940628710791    4.87430536103307   15.97980297284523
H        11.76265854483873    4.98269145065075   14.91950245605025
C        11.41945299692729    3.56354380393531   16.48875600967703
H        11.61840057793503    3.44066696362783   17.55109891350712
H        11.84373512552799    2.71689995169033   15.95350556896927
H        10.34116955152515    3.56992312246440   16.33912610052288
C        13.55253106164969    4.84817654829876   16.09237020683755
H        13.97368099151741    5.81976916446518   15.84307265367079
H        13.95691553379139    4.10904152731083   15.40425939596642
H        13.86967985838890    4.57717070658624   17.09607742180362
C         8.44205580125494    9.89416161833497   16.34347005867312
H         8.37266422086518   10.24587173090159   17.36956171948560
H         7.60452023104150   10.30998026118796   15.78773303251109
H         9.36620323514635   10.27035891147314   15.90960920575040
C         7.16313363635831    7.81584291564425   16.99263113167245
H         7.12383682880578    6.73356144905786   16.88556383702801
H         6.25808049974842    8.24354311525511   16.56774121663167
H         7.19879845563919    8.05601862466092   18.05292996142954
C         8.39920653823003    8.36826555877143   16.27626556231526
H         8.34158694082756    8.06924055847455   15.21865752837827

