78
CSD_code = VEBJEU | q = 1 | S = 0 | Stoichiometry = C31H42IrNO2P(1+) | MND = 6
Ir        6.17466465802488    3.32915091032298   10.34873180388131
P         4.50812169275955    2.51441317448482    8.87895668658216
N         4.91158146027123    4.62793533578297   11.52979322709350
O         7.70958602609707    4.12420074500860   11.62108168084512
O         6.36781205630569    1.59369316467674   11.92727005405299
C         7.84265729768678    2.17677731072891    9.72483233617548
H         7.57222580006519    1.16234334475752    9.39896354570771
C         8.88603647994362    2.70032632198749    8.74626484125783
H         9.18977809632610    3.71714480011273    8.98528044457032
H         8.50047562128339    2.68094609439321    7.73190667945405
H         9.77626907046802    2.06693290099074    8.76615361470835
C         6.35809102978587    5.06062014177958    9.29867056745230
C         6.96524313533975    5.29774224053645    8.07677027966474
H         7.35143991534619    4.48080767964382    7.49032875863244
C         7.10224135989578    6.58496647268104    7.57755998147326
H         7.57812789981608    6.73832335127673    6.62070754653540
C         6.63186578931126    7.66712543881846    8.30082667766080
H         6.73203099199079    8.66800514331934    7.91083419717096
C         6.03298113894953    7.45910287680374    9.52618647214346
H         5.65582476156149    8.30599355385037   10.07797680765440
C         5.89638671017304    6.16727252913294   10.03679501911394
C         5.24928309625422    5.89508404613064   11.31747200827735
C         5.00010533933700    6.89528394754671   12.28246700275364
H         5.30963067963209    7.90918639577732   12.09222981354929
C         4.40276567917138    6.56473580959486   13.46343433572264
H         4.21866568013437    7.30967035328632   14.22340038555483
C         4.02037486944429    5.22802584024408   13.69967440738830
C         4.30056836276911    4.27312628354567   12.68475833063499
C         3.90683922992187    2.93563559219559   12.89041942739699
H         4.10700871964282    2.21609503882413   12.11308539120471
C         3.28891012222656    2.56248118169726   14.05209915762405
H         2.99220988627990    1.53488218459591   14.19877751019670
C         3.02900596184181    3.50274608416828   15.06046229248224
H         2.54196741671191    3.18690928226172   15.96989014125712
C         3.38591762235959    4.81133068257219   14.88556298242037
H         3.18546333564445    5.54796853550212   15.64913026133556
C         8.53732251142731    1.99478562882047   11.11640307159778
H         9.49396294788772    1.46821526280840   11.06494268007540
C         8.65187298869034    3.35653656661394   11.74171630867667
C         9.88890137685028    3.70934392041511   12.49343012270712
H         9.77514568520053    4.67146549297436   12.98672197734013
H        10.72094776484950    3.76558803632974   11.79122762969319
H        10.13057698568891    2.94256044943763   13.22713262149153
C         7.54437606308688    1.29535655270078   12.01447629444003
C         8.05620964818429    0.25957948165432   12.95576961864405
H         7.26527245736878   -0.07468280340715   13.62285433487847
H         8.89283460515804    0.64333263029086   13.53613354910098
H         8.41976868668502   -0.59177903214566   12.37991754117889
C         3.81772388280888    0.83815377838014    9.37023675438865
H         3.31908758924490    1.05524571158138   10.32284775894932
C         4.89246019425989   -0.20458138990799    9.66196606044428
H         4.42581216124736   -1.09336069333068   10.08387095712745
H         5.60460477828861    0.17390081574777   10.38632418053300
H         5.42338929169092   -0.50162106499126    8.76369815636411
C         2.78067681577586    0.25736679387968    8.41182322110714
H         3.24114818004247   -0.06041123140336    7.48109018690589
H         1.98014250372669    0.95737928870755    8.19219327828088
H         2.33153298527387   -0.62226950468682    8.87086616100968
C         5.01718491319010    2.47026594105184    7.06623525792958
H         5.62033209335513    3.37876581568312    6.97456419590353
C         5.91797333221408    1.27763812800413    6.75211980951963
H         5.33638299230063    0.36579233436460    6.64831655754577
H         6.66560780611441    1.13824276070847    7.52422868356494
H         6.43141095972491    1.44684739539739    5.80743964419934
C         3.90489403711460    2.54904503517931    6.02001071847983
H         4.36401156861123    2.47404539752983    5.03551561192934
H         3.37150831828058    3.49321359987615    6.05438463075951
H         3.19359865208498    1.73445303580395    6.10986132890091
C         2.92694642374629    3.51567419192352    8.76396103188060
H         2.37262422602273    3.05946066669287    7.93861411142334
C         2.03918138432905    3.46349810962764   10.00287008746073
H         2.55584674493058    3.85334272144074   10.87310277292763
H         1.69055768794424    2.45791028580199   10.22061648100854
H         1.16119000189921    4.08398075597716    9.83077640997637
C         3.21552821867770    4.97088453255219    8.40468623254912
H         2.30873854815635    5.44553424897541    8.03424119366921
H         3.98747677257299    5.06067904567364    7.64518630720052
H         3.54587822251805    5.51723651822505    9.28177179861614

