30
CSD_code = VEBNAT | q = 0 | S = 0 | Stoichiometry = C12H10NO5ReS | MND = 6
Re        0.73718721441932    4.43170362965155   12.05514456008708
S         1.74731322266488    5.30423912768231   14.34175258538041
O        -0.03695676542271    3.00641605070825   13.47164850473604
N         2.21574120229386    2.76337266592321   12.13670848251616
C        -0.69206157595021    5.73236158791275   12.30369031991867
C         1.76756021015967    5.65474417938521   10.95939129806519
C        -0.13660634906489    3.73644092081344   10.46055259533039
C         1.68558340587616    1.56295075252120   11.88244078106000
C         2.25672873975541    0.37728849694393   12.29941670514189
C         3.44015848164405    0.42337678716653   13.01764607557123
C         4.01170178653142    1.65931244192680   13.25021053349066
C         3.37781527598190    2.80984845704020   12.79318975203530
C         3.98883403437857    4.14960002855049   13.08827117993124
C         3.47964044611072    4.70108286826684   14.41909286994162
C         0.86516191467758    4.11611595165980   15.38411669216289
C         0.49403500366456    2.81055475438506   14.59471800924392
O         0.74103894891117    1.74428611770286   15.12641506251408
O        -1.53980162579154    6.46112224890390   12.53020542896354
O         2.41792577840367    6.38543381940725   10.35566329354694
O        -0.68193736259565    3.31960958682066    9.54296064800945
H         0.75170972249497    1.54993680905548   11.33610388810589
H         1.76867619234549   -0.55788823808647   12.08044762094464
H         3.90422936697776   -0.47774444536119   13.38724902114459
H         4.93830258543641    1.74803592071835   13.79688259847133
H         3.75810236444238    4.86006241867895   12.28922596727692
H         5.07437032895539    4.04307129330192   13.15116575858097
H         3.52906177217496    3.94538731543289   15.20322200692801
H         4.06851561556593    5.57040138266461   14.71304898151857
H         1.46047857704117    3.89994806080154   16.26988259423467
H        -0.06090851208287    4.61772900941939   15.67463618514757

