59
CSD_code = VEBQOI | q = 0 | S = 0 | Stoichiometry = C20H35ClRuSi2 | MND = 10
Ru       12.18423980136697    8.83697123938347    7.20183662646152
Si        9.11367888654667    7.47156103196781    8.64884547778726
Si       12.02345965074125    5.11169219039629    6.71990049099069
Cl       12.52501377248291    7.89310871844435    9.34411793475670
C        12.78848849270554   10.49600342208704    5.89791067882062
C        14.00249681635242    9.79016512790765    6.22522935511533
C        14.16601353157018    9.85991087736775    7.62221002580919
C        13.09008949793238   10.69181858263469    8.16616938676299
C        12.28112519105029   11.11537825659311    7.09744646940872
C        12.38065449237437   10.88726816096177    4.50906188951365
H        12.85424517111193   11.83638641289907    4.24802890377259
H        11.30287514249862   11.01745634927897    4.42846616133722
H        12.69274765444560   10.14427113943778    3.77824123340246
C        14.96656531318636    9.20887032258397    5.23723206593008
H        15.65712979787026    9.98438652173998    4.89802258458046
H        14.45197809291346    8.81023582604487    4.36542488160518
H        15.54772694789080    8.40596473645534    5.68485827683745
C        15.34731661354415    9.41780889111890    8.42849919182755
H        15.92416306762723   10.28990772807473    8.74273977559460
H        15.99395349507009    8.76060089961242    7.85190768537116
H        15.01876017202879    8.88546530929750    9.32162441822601
C        13.06010431785720   11.17831992473262    9.58127787871917
H        13.90786417982751   11.84291406842663    9.75916297804609
H        13.13449633194175   10.33875552792606   10.27324059942383
H        12.14134400410892   11.72148907486687    9.79010145679963
C        11.17823635717772   12.12694870217969    7.15901517605428
H        11.59768801080105   13.13188024427288    7.07269560830589
H        10.63939041360588   12.06311511885116    8.10198580396639
H        10.46732153948183   11.98826259098066    6.34750442118894
C        10.35457018986075    7.70154519921907    7.25079090481777
C        10.35016530159608    8.55540221047467    6.10279155920241
H         9.66438286895134    9.31243321206439    5.74140627139356
C        11.41588593660745    7.79777535503252    5.50012999784512
H        11.82231985336673    7.74216974574860    4.49763410503967
C        11.45899592007375    6.90399288277231    6.62950530930071
C         9.52843485445742    5.98626970156909    9.76201213962422
H         8.83205749283335    5.92813387017976   10.59294844661895
H        10.52916141629297    6.08258858964991   10.16835861551671
H         9.47430748640624    5.04825025152095    9.21860284251125
C         7.42528889564719    7.18208309905912    7.79448054983470
H         7.13597424941329    8.02403751351533    7.17367563688280
H         6.64773318887873    7.03982510109502    8.53700090084180
H         7.44168079615897    6.29949985332277    7.16295068205525
C         9.05315436426909    9.09902027195778    9.64726295608143
H         8.74872121086201    9.93613050966396    9.02462968481860
H        10.03578364211269    9.32254479581621   10.05217728173639
H         8.35715998918972    9.03343026965091   10.47783556292516
C        12.64037596364815    4.50841577806933    8.41776108588166
H        11.84043180253845    4.05845139906603    8.99640872311347
H        13.04301630825946    5.32947004958085    9.00205347641874
H        13.42280377685248    3.76395893800041    8.30233610726067
C        10.51878066652852    4.07440201289325    6.14793388441374
H         9.66128630233997    4.22578336033702    6.79639746415952
H        10.75922938037997    3.01628221078246    6.15882189780228
H        10.21463677119341    4.33219880643433    5.13791717040428
C        13.42991958609322    4.94745584189072    5.43194527435141
H        13.09697078404604    5.21933203696384    4.43461696078386
H        13.79612404719232    3.92680918606218    5.38615771541884
H        14.26958019788507    5.58709095107523    5.68619935651881

