100
CSD_code = VEBTUR | q = 0 | S = 0 | Stoichiometry = C44H50IrNP2Si2 | MND = 5
Ir        2.38667090684752    2.35914771607805    1.61293014422870
P         4.11081075707805    1.14065964924905    0.63212049229649
P         1.11922479617216    3.68602744741921    3.04334637851011
Si        5.60861890222931    2.82505045547741    2.66437752966672
Si        3.47792102804571    2.96367757093561    4.80192575416197
N         3.98078427564265    2.75407886710092    3.18154477167126
C         4.57578691300690   -0.42157305067493    1.45416046710000
C         4.37014386806167   -0.51960874884487    2.82488112733798
C         4.78630893277835   -1.64100796473614    3.51724821461372
C         5.39899339318493   -2.68436756399981    2.84296074960567
C         5.59607976112306   -2.59784779728333    1.47486787134931
C         5.19127210584469   -1.47074473448979    0.78113344215324
C         4.17574808498029    0.62279098321860   -1.12732656776757
C         5.21991513708694    0.94994314406847   -1.98491919888953
C         5.20294917997396    0.53168869128687   -3.30463436117423
C         4.14376299440762   -0.21780049419957   -3.78608213605105
C         3.09805835517278   -0.55051836562990   -2.93999951249748
C         3.11494458302360   -0.13018179788268   -1.62382143716472
C         5.65345651329313    2.06519079688469    0.89665129822519
C         6.85295304199514    1.86446204765684    3.74673817999712
C         6.29433328933500    4.60168165761951    2.45785149128921
C         3.71349759006842    1.41805494107561    5.90867077345106
C         2.83023379395343    5.84290383125316    2.79590613061638
C         3.21928830374721    7.16439211241090    2.90967427824909
C         2.30504926395446    8.12429603194954    3.31108167305868
C         1.00240903963760    7.75476515834406    3.60239731214226
C         0.61335185945167    6.43057755152994    3.50048898472759
C        -0.71353233021434    3.76697610569245    3.05435575917268
C        -1.48958843160568    3.44627854400160    4.16212129806054
C        -2.87073930544958    3.52018038090363    4.09799323437636
C        -3.49504400755083    3.91520803640399    2.92777399326115
C        -2.73116966563311    4.23860116770730    1.81748088580012
C        -1.35324750103577    4.16106337748169    1.88179013732434
C         0.76333976020120    1.02263672340950    1.24370197793187
C         0.86417308558361   -0.01526060612026    2.28530804128889
C         1.52469422480287   -1.22510523422514    2.05948692606108
C         1.61781435985652   -2.18447995962802    3.04879610910092
C         1.05647551571488   -1.95997148135085    4.29449692839659
C         0.36951905108790   -0.77904550051357    4.52911002658951
C         0.26386022996238    0.17150920875032    3.53400906201392
C         1.72262741090562    3.14088131359242   -0.25842050495217
C         2.51799459298759    4.36261157248221   -0.47463927350525
C         2.04693598968739    5.62466394903254   -0.10565503600101
C         2.80977558164220    6.75887833439587   -0.30498124512234
C         4.26694387676789    4.43897679856525    5.72029128890644
C         1.57503090155114    3.24787571392478    4.74700850371676
C         1.52742873183818    5.46436318212588    3.09585075588954
C         4.06727144873021    6.66355686838096   -0.87680020004086
C         4.53968948439552    5.42429425966796   -1.28025417214097
C         3.76994635564989    4.29402029897139   -1.09356288716837
H         3.89037087407775    0.29563858193410    3.34342975944229
H         4.62603792437339   -1.70339739915259    4.58364255044668
H         5.72087244966147   -3.56488449318002    3.38011954082696
H         6.07145591017111   -3.41079853526996    0.94449754436281
H         5.35564657303627   -1.41164205289153   -0.28588164913255
H         6.05734428685972    1.52961073207921   -1.62578748880183
H         6.02173948971330    0.79285307114452   -3.95976543256432
H         4.13307355402439   -0.54138914665334   -4.81632207135473
H         2.26870703073021   -1.13569278077924   -3.30938087123837
H         2.30146210052728   -0.38549992725291   -0.96103855107408
H         5.70080984229894    2.87564280017898    0.17267682875750
H         6.50886998571586    1.40447345576561    0.75272783632269
H         6.84140669130362    2.26082178528437    4.75626675399485
H         6.61289798323891    0.80751408427366    3.80307816974732
H         7.86696293337030    1.95628679912364    3.37019509896528
H         6.16636061281688    5.16385958202653    3.37631762274411
H         7.35560616363673    4.58796477770919    2.22804950137256
H         5.79358663599496    5.14782792299605    1.66279732718321
H         3.46483313688339    1.63480293673254    6.94324055435602
H         1.25146013319137    4.03399369992940    5.42988549338265
H         3.53693624788272    5.09023763776753    2.48344867633259
H         4.23643456342563    7.44594399479969    2.67930372007810
H         2.60468134645122    9.15879436873903    3.39693014316514
H         0.28561318318175    8.50070581269831    3.91507245451053
H        -0.40466258565499    6.15240470452894    3.73597544083684
H        -1.01974418093718    3.14374115250413    5.08628938871026
H        -3.46140000743935    3.26930540384643    4.96721840431854
H        -4.57244268490223    3.97193253580482    2.88098937917346
H        -3.21241609588763    4.55016588245785    0.90200917165926
H        -0.75363039714658    4.41259773749470    1.01938773538648
H         0.80680077992135    0.57402866510510    0.25078622816751
H        -0.18575605701122    1.55719606022147    1.33840142432743
H         1.96353397869659   -1.41796112860153    1.09133600296654
H         2.13247284478822   -3.11312421563923    2.84798589285183
H         1.13676847891204   -2.70642727345006    5.07108334593972
H        -0.09569132072497   -0.60974018293002    5.49046782312358
H        -0.31293675883556    1.07044497754328    3.69888985883116
H         0.65662804838243    3.37104245729114   -0.25665571961557
H         3.09362868885955    0.58425904858995    5.59029767694230
H         4.74661137964513    1.08998201149272    5.88307413955076
H         3.91503971484267    4.50886115688652    6.74484260323329
H         5.34411616591673    4.31601450073923    5.75159931922543
H         4.05554095266146    5.38399533977820    5.23026135653089
H         1.07989543890502    2.31667854247637    5.01256873481239
H         1.91964130451774    2.42063805327952   -1.05686167924751
H         1.06524025675152    5.71674691359427    0.33597926617753
H         2.42188468595001    7.72379030049429   -0.01155786938003
H         4.66751289471022    7.54927926337366   -1.02512589414887
H         5.50870313911050    5.34644956959528   -1.75406703079569
H         4.11702565343536    3.33477962604410   -1.45071397127111

