87
CSD_code = VEBWUW | q = 1 | S = 0 | Stoichiometry = C32H52IrNP(1+) | MND = 6
Ir       -2.93453997870454    4.27746012131930   13.12937954353599
P        -1.65107229864687    2.29909005286243   12.66160925575820
C        -1.14384091533311    2.00109033829863   10.86945154718198
C        -2.29205477987798    1.40113695568431   10.05316119752570
C        -1.97768882644132    1.48313860598075    8.56129953860685
C        -0.70271583315126    0.70269990529834    8.26126752965703
C         0.45101028706431    1.23642467788708    9.10248125777801
C         0.12891389769937    1.19424612952559   10.59879481169208
H        -0.00096663433263    0.15780038991917   10.91200174467179
H         0.98354403283506    1.61179951303250   11.13071081546462
H         1.35006701590970    0.64794877365501    8.91343264399258
H         0.66236762695366    2.26796140180115    8.81067215259598
H        -0.45477497483001    0.78236600465617    7.20239232870426
H        -0.86149039490744   -0.35388955788757    8.48717319989527
H        -2.81005532764355    1.07324690280201    7.98711157546401
H        -1.84845628259940    2.52669692875138    8.26503910310037
H        -2.41217831757292    0.34950731851039   10.31353538941532
H        -3.23036938945579    1.91559270219295   10.26963471605976
H        -0.96200112901017    3.01369187252206   10.48516955632683
C        -2.51390190854401    0.77232357678702   13.30014541461467
C        -1.81072770468727   -0.56915225903463   13.09844902051638
C        -2.53198940557657   -1.63644565748449   13.92321028369301
C        -4.00353374193400   -1.73105859900224   13.52764012269200
C        -4.69433003554816   -0.37649617280091   13.67099160443524
C        -3.96490625111946    0.66600897346565   12.82583110802794
H        -4.00670124009314    0.34651210341220   11.78660138544447
H        -4.45444804985506    1.64291084937294   12.88750958556601
H        -5.73400676315774   -0.45664077550348   13.34906222187004
H        -4.68921951511166   -0.07738387432929   14.72246686100817
H        -4.07898466288027   -2.06552590819623   12.49090111380727
H        -4.50516149329010   -2.47159985395342   14.15185994810089
H        -2.04799680665182   -2.60297070339310   13.77502397723281
H        -2.45623621477846   -1.38703659956948   14.98478377450743
H        -1.84107038246897   -0.85738622447012   12.04736895394118
H        -0.76488011887352   -0.51560470222273   13.40517644166596
H        -2.55324321841381    0.96791397612472   14.38226984958418
C        -0.00650308757810    2.23941612110042   13.54955399650744
C         0.69711372381738    3.57382591810374   13.28697366478121
C         2.08089972068688    3.60881195556791   13.92843427126157
C         1.98185297103239    3.34367224552981   15.42633172829635
C         1.29885220074136    2.00382876259696   15.67627915513077
C        -0.09680994746345    1.97820662597102   15.05286449702645
H        -0.54886041749187    1.00478755271811   15.24795681344418
H        -0.71113682799064    2.73984915603879   15.53356633979655
H         1.90443863239026    1.20409145003196   15.24498474739311
H         1.21970329939379    1.81842147441373   16.74884513592337
H         2.97829005556661    3.34009682718927   15.86926037100542
H         1.40752843689915    4.14170661433983   15.90301125912293
H         2.71388539527406    2.84701424056222   13.46846673596494
H         2.54576808850912    4.57945695030606   13.74850850458704
H         0.79085671868680    3.74139847777711   12.21155380432725
H         0.08327544346100    4.38235184788530   13.69604081568500
H         0.58429501802401    1.42810242480307   13.11408483386004
N        -3.13055599958527    3.72290213035842   15.09014089748717
C        -4.11643221963615    2.96462177262479   15.58368072214832
C        -4.34505363572818    2.80280835294170   16.93422088015116
C        -3.53274603282589    3.45048333693615   17.86297067153093
C        -2.51213433517875    4.24517106895935   17.34467628668360
C        -2.34809529430878    4.35192332995350   15.97947906799874
H        -1.55902898963894    4.97314953199390   15.57730870152352
H        -1.84593800264720    4.77861376714616   18.00405281618418
C        -3.76291712080789    3.31882778258935   19.32674969270071
H        -2.86490777641404    3.56007694351894   19.88908435504536
H        -4.08861723796283    2.31245557822235   19.57936081107402
H        -4.55033832429491    4.00758506682418   19.63549810005076
H        -5.15816445601059    2.17537791344321   17.26393841752699
H        -4.75065321247290    2.46606686953717   14.86582816791394
C        -3.23720244369145    4.84254137322383   11.05461954082822
C        -2.09550621920306    5.46764003967404   11.55882915276916
C        -2.00981006359006    6.91524581405057   11.97797656637239
C        -3.19085101154747    7.37422453853009   12.85092439222411
C        -3.73405421169342    6.25597192093403   13.70680683975813
C        -4.77930860851599    5.42916878418253   13.33361917236190
C        -5.49654450619648    5.47900883484785   12.01013582829348
C        -4.54605294767457    5.56217534659081   10.80362245480540
H        -5.03914420615107    5.11035928866437    9.94256700048283
H        -4.34083998922817    6.60058403301145   10.54598644520184
H        -6.10855038922915    4.57975410691225   11.92082736185907
H        -6.18053419649121    6.33295357664569   12.00897523134713
H        -5.37221872716748    4.97800710432546   14.12783218228008
H        -3.55961833353653    6.38427029078156   14.77235749937868
H        -3.99310611415478    7.77367044668697   12.23153607021504
H        -2.85184293807990    8.18344410309263   13.49878213591923
H        -1.93941842615457    7.54103524597126   11.08354380891614
H        -1.07987926505420    7.05136491564299   12.53380248717082
H        -1.12763761406384    5.06873316958499   11.25666771777619
H        -3.08070684000464    3.99276779061873   10.39857227575783

