62
CSD_code = VEBYEI | q = 0 | S = 0 | Stoichiometry = C19H33Cl2NO5PRe | MND = 6
Re        5.77291878223700    5.32850603487971   10.49270094594618
Cl        3.95434989236269    3.79968928181724   10.26249424967556
Cl        7.67101599017355    6.74721112639733   10.71556711327475
P         6.84986803515920    4.59817898083227    8.51640241162837
O         4.84121334092136    6.56177372837256    9.91398151686076
O         6.75031391279013    4.00012828192175   11.15993714260937
O         7.90189329043661    3.44368470963060    8.78552469195196
O         7.78451023196686    5.57031755651559    7.67976591401938
O         5.90553644265557    4.14616244735790    7.29831110191555
C         7.71453325357648    3.02099269606380   11.19072660752544
C         7.77656396456882    2.38255583047194    9.75305957605030
C         9.05894700729286    3.67698166722696   11.55478881720988
H         9.39892914653251    4.30939335154323   10.73751195372151
H         9.80873627400431    2.92645716975668   11.78609972702715
H         8.91041653228648    4.31417971293639   12.42498836149260
C         7.33187773405900    1.97927892529882   12.25642745368277
H         7.41109966052468    2.44237137714514   13.23830699145488
H         7.99160286427278    1.11802787368237   12.22123208264608
H         6.30357022901529    1.65873119567284   12.11069814954142
C         6.51996573292122    1.57833844543695    9.43221883026360
H         5.62009088959515    2.14435554035884    9.67575105338779
H         6.51540647403421    0.63879360026346    9.97787739232586
H         6.50608801997929    1.36411966149213    8.36528600567459
C         9.02383201439450    1.52581075411620    9.53893334400210
H         9.91564796066256    2.14450979357283    9.54526034240447
H         8.95344643284989    1.03818019246570    8.56962473390919
H         9.10471678120656    0.76431870637696   10.30839380129300
C         7.06958704339817    6.04487370969380    6.52519921816980
C         6.27666597957011    4.78433847493242    6.06383395694541
C         8.09590225587637    6.55296398641376    5.52153806457252
H         8.87734649626571    5.81823071558441    5.35859816680661
H         8.55539430009809    7.45581500655737    5.91376709912397
H         7.60929896437260    6.78376981672785    4.57796851608119
C         6.15167552683876    7.18074291960267    6.96683299682831
H         5.39081594765281    6.81362726924818    7.65688959402083
H         5.68049594304636    7.65901947687001    6.11317073138840
H         6.74900258988113    7.91412887755292    7.50424809371847
C         7.15570727527865    3.80313583887098    5.29157718094813
H         8.07905648226185    3.62523170650442    5.83820429726620
H         7.37848328149104    4.18033126213492    4.29773742392755
H         6.62371594679695    2.85912027334376    5.20000580340258
C         5.00395161636371    5.09633968826608    5.28947809772752
H         4.28767319882592    5.60219346997499    5.92815069149520
H         4.55534813101595    4.16764519129196    4.94746692456893
H         5.23203655428036    5.71883915900778    4.42860682286948
N         5.09757136341296    5.77452393232586   12.59043692187052
C         5.33233242814377    6.97169564451875   13.11294146212332
H         5.83547084700658    7.68392229151783   12.47343566701828
C         4.97162049743689    7.29853815131314   14.41401301683790
C         4.34290755429587    6.31905261301424   15.17426903144300
H         4.04423724251086    6.53485550006728   16.19090757140498
C         4.09353531492364    5.06589990635180   14.62959369858249
C         4.49772963785936    4.84319279418381   13.31879200628500
H         4.30755256228345    3.89649923595104   12.82990532756241
C         5.23585591091539    8.66414312416100   14.96018927758177
H         5.54591241281983    8.61014980140186   16.00143080085191
H         4.32681509759435    9.26330882407798   14.91073889416182
H         6.00619267784042    9.16536898785248   14.38136761443639
C         3.43049448373979    3.98050840040953   15.41528408989401
H         2.89531825127414    3.30391374451510   14.75449074916415
H         2.73604710607721    4.39797648100812   16.14021834940581
H         4.17935818806887    3.40325508314735   15.95824153001879

