79
CSD_code = VEBYOS | q = 0 | S = 0 | Stoichiometry = C30H39Br2O5P2Re | MND = 6
Re        1.08703256321951    4.70958732418091    3.30679935716968
Br        0.46486767454035    3.72485011602659    5.57083559707502
Br        1.84709505963225    5.92293113933627    1.19940452835390
P         1.22492743275166    6.72234017975898    4.58197301204446
P         0.51352059582932    2.71245148343813    1.91665723771778
O         2.63182399428844    4.15734667422483    3.51245675988371
O        -0.58943336088551    5.33068502359378    3.08453311459041
O        -0.20525073345762    7.38037349345425    4.79680183558996
O         2.23632482914640    7.85887116448719    4.05518586093851
O         1.70814693365461    6.73162288849207    6.09526446342114
C         1.75359617365391    2.31945812341495    0.64859793447779
C         3.08966321810968    2.62184785853930    0.88873656553873
H         3.36697153486862    3.11232498401840    1.81434143741213
C         4.05006334103468    2.30960793250214   -0.05597361211850
H         5.08470120888429    2.55507932421126    0.12887309141792
C         3.68153769971139    1.69130468318671   -1.23913941871053
H         4.43022669619344    1.45249127260225   -1.97978035430908
C         2.35207820231532    1.38055849997700   -1.47697765412810
H         2.06535817728393    0.89647802360575   -2.39899841835272
C         1.38611040300343    1.69103694024297   -0.53814709187545
H         0.34872884999767    1.44908694266516   -0.72424314924042
C         0.27256023223840    1.14522337764721    2.79984546363890
C        -0.67957632325358    1.08452219694128    3.81632964476470
H        -1.25755768981565    1.96066375373903    4.07180614669428
C        -0.86415619695132   -0.08627469002650    4.52661720694035
H        -1.59610980421580   -0.11970809950935    5.31881089343120
C        -0.09840206763269   -1.20251869623515    4.23322442360739
H        -0.23839832680431   -2.11569263474015    4.79214968641169
C         0.85698224848542   -1.14327850667367    3.23219130566384
H         1.46255878765490   -2.00943485052139    3.00908960777376
C         1.04905944789526    0.02567947582135    2.51818623773728
H         1.80301884892546    0.06978038527080    1.74553628281257
C        -1.00226882248763    2.97045747186111    0.94670062482895
C        -2.19019172719821    2.29180815490973    1.19491696750725
H        -2.23934128375796    1.54573602764774    1.97491939533942
C        -3.31146546450725    2.55954589233702    0.42778943881308
H        -4.23075396387965    2.02708367820659    0.62461584885644
C        -3.25665772090240    3.50037711121233   -0.58714233213822
H        -4.13459638056438    3.70473145311012   -1.18190420851847
C        -2.07297505273828    4.17665918629138   -0.83856844327200
H        -2.02312292794254    4.90976326771701   -1.62968051268722
C        -0.94999748423609    3.91850957033851   -0.07537281918102
H        -0.02891126497309    4.44968688396066   -0.27318658303953
C        -1.71076856206472    6.08691025826172    3.35417616847463
C        -1.23676492990474    7.52008760627774    3.80084359165082
C        -2.50356497922687    5.39756126912088    4.48095152450337
H        -2.61533369953364    4.34231077728083    4.23394049038667
H        -3.49055618989793    5.83830079694316    4.57906015624001
H        -1.97064167629570    5.46824137664089    5.42680191507992
C        -2.58533088116517    6.15940834268130    2.09002025960371
H        -3.39546680729625    6.87033851409703    2.21844209916178
H        -3.00916005398563    5.17527903179427    1.89813316549824
H        -1.98576401169665    6.44200087327836    1.22809222000902
C        -2.33688632358990    8.31318076327035    4.50475927120840
H        -2.57460673714809    7.86497595737803    5.46466311370085
H        -3.23243030586413    8.35772660624737    3.89240561039008
H        -1.98185382832763    9.32612928135553    4.68048523710359
C        -0.68049520197969    8.33016862363336    2.63275894411102
H         0.04177161315241    7.75531827454150    2.05668078516201
H        -0.17044260221636    9.20739574301893    3.02664873972810
H        -1.48120745032405    8.65678444961032    1.97531011994328
C         3.07002445562856    8.36719184071050    5.10926552836755
C         3.05651010738879    7.22382104886550    6.16807444501220
C         2.41672942585032    9.64282352528367    5.63518947632437
H         2.24936432188559   10.31821116510443    4.79892650000079
H         3.05705809422132   10.13430914601544    6.36193396399421
H         1.45496476081034    9.40850018644288    6.08711916636535
C         4.44282006861942    8.66437794717091    4.52309139458100
H         5.14558841408322    8.90116531169273    5.31738143252907
H         4.36844257920409    9.51334423729997    3.84865604534082
H         4.80670836381397    7.81522989663704    3.95368711266728
C         3.30781950066585    7.67568849774023    7.59940875525434
H         4.26651178389868    8.18292810170774    7.66504687033582
H         3.32182221939355    6.80355854226036    8.24754965528469
H         2.51983001522454    8.33851514450787    7.94172941081897
C         3.99741448184719    6.07938312284936    5.80065753672046
H         5.03633195756923    6.36312937360447    5.94084389097098
H         3.83829158290853    5.76723278679315    4.76676729423871
H         3.77108293723761    5.22731709861871    6.43922273635120

