73
CSD_code = VECBAG | q = 0 | S = 0 | Stoichiometry = C34H24CdCl6N8 | MND = 4
Cd       -2.30353377296619    4.10685730411381    2.80800030362309
Cl       -0.83437883563954    5.21945379897523    4.24437010778444
Cl       -0.98706754473503   -3.65533272893991    8.96891941399455
Cl       -1.10432362744654   -2.76039259419695    3.91464994549424
N        -2.92060735364803    0.55364213498813    5.32051183166193
N        -4.09931632186139    1.74396092905848    3.91787393675900
N        -2.97962592015009    2.43008453226439    4.21307759616940
N         0.00804001712537    1.04937185462798    5.01404021439620
C        -2.26380162180020    1.72213131841054    5.04084112444331
C        -0.90736321613775    2.01934249779516    5.56152177629141
C        -0.10777799616617   -0.18510320367331    5.26423104046721
C        -0.66898941594240   -1.81907139176640    7.02850651896876
C        -1.55364801108165   -2.42713602598053    7.90013105542125
C        -2.89162039677942   -2.05593215642712    7.92340894996120
C        -3.33587082118837   -1.06893537935154    7.06700943751438
C        -2.45566576836862   -0.44679237042307    6.18714387799622
C        -1.10582119439939   -0.82017583805327    6.16137400986650
C        -4.08008487126971    0.62640882994932    4.57979309350763
C        -5.12360851493762   -0.41873217229742    4.50198066758277
C         0.90067191933732   -1.08521494335314    4.66792779032696
C         2.24099602908968   -0.70531120544897    4.67927299499571
C         3.21477562683724   -1.52893604033334    4.14734305411278
C         2.86113534012499   -2.74574806548391    3.58616581910484
C         1.53153161384474   -3.12707770634800    3.53540111785948
C         0.55998514141976   -2.29776375544421    4.07084955942990
H        -0.59597929431033    3.01342840707716    5.22168820334750
H        -0.91596512355937    1.97843764709727    6.65988094889116
H         0.36980123246205   -2.11188974975062    7.02131712040395
H        -3.57401373161155   -2.53194008242786    8.60875316355421
H        -4.36851261957912   -0.76143459356906    7.09498403434242
H        -5.82682469553564   -0.33026912062718    5.32929592034824
H        -4.67893815406051   -1.41213975260487    4.52187122386475
H        -5.67353342165976   -0.27553082911188    3.57600097191688
H         2.49191223849815    0.24884141207664    5.11416607411812
H         4.24906224106476   -1.22329184453863    4.17070739308315
H         3.61721519838067   -3.39758373589511    3.17652533322892
H         1.24338368342505   -4.06142911038665    3.07961552207113
Cl       -3.74112092322572    5.22371458014814    1.34279190195114
N        -1.67536951545618    2.38194464765544    1.43530377561795
N        -0.55364719278466    1.69020214629943    1.70836176580376
C        -2.39887380205569    1.68948007602525    0.60122682736015
C        -0.57977494124202    0.58435497533265    1.02720134253649
N        -1.74617873229830    0.52509065612582    0.29609515458779
C        -3.75795401865981    1.99819191114877    0.09459698528621
C         0.46521628990781   -0.46109055483843    1.07548601007593
C        -2.22093295890605   -0.46125797925473   -0.58142301810412
N        -4.67278474661918    1.02258235279580    0.63273503107877
H        -4.06353775857488    2.98855926125081    0.44979041273179
H        -3.75605216438385    1.97374424632024   -1.00425774901496
H         1.15652844228915   -0.36005321464836    0.23962871638997
H         0.02090226691285   -1.45445346221247    1.04768583525916
H         1.02844978836694   -0.33074154034938    1.99529765107246
C        -1.34920312942124   -1.07251605668789   -1.47723193980057
C        -3.57132147183652   -0.83265891700061   -0.55004776869637
C        -4.56214779760840   -0.20818456504528    0.36212665637648
C        -1.80177885603995   -2.04747326567968   -2.34297980394141
H        -0.31648157921077   -0.76583739997278   -1.51008346917180
C        -4.01641868729200   -1.81967745795772   -1.42660847563524
C        -5.57086869027197   -1.11352169624675    0.95045117768605
C        -3.13982582166250   -2.41771000135385   -2.31314557990897
H        -1.12562733348553   -2.51501311050273   -3.04026670116002
H        -5.05561751648475   -2.11097130814762   -1.41499994261488
C        -6.91059710763247   -0.73134554772041    0.94632631458946
C        -5.23029151157774   -2.33230020314456    1.53466482413746
Cl       -3.71680242817601   -3.63154221923503   -3.39268993170337
C        -7.88407003966364   -1.55810132960916    1.47396248210858
H        -7.16152790196432    0.22687741689468    0.52041801688318
Cl       -3.56625663465065   -2.79996549348796    1.67753737019863
C        -6.20142995842066   -3.16422873083898    2.06667504339483
C        -7.53047735331230   -2.77995738903492    2.02403546002102
H        -8.91795639585053   -1.25076651376479    1.45613674565376
H        -5.91343711689803   -4.10302784252856    2.51329624341269
H        -8.28627073792289   -3.43374274061435    2.43105148815255

