84
CSD_code = VECBIQ | q = -1 | S = 0 | Stoichiometry = C30H48ClN2P2W(1-) | MND = 5
W         8.53555524552194    4.07642146267267    3.74055959306188
Cl        9.06699875454674    5.61234143467483    5.44462313351434
P         9.07419299063858    4.56625690567059    1.47353702360109
P        10.77413789332253    4.74696175490211    2.73343617082935
N         6.74088425059042    4.16221451673405    3.88627936096712
N         9.09786438574608    2.43025064415754    4.25556181724126
C         5.42488034921088    3.98333928775938    4.02012242359107
C         4.60492572303599    3.74020238885842    2.88351860629887
C         3.25001403576652    3.54513206222973    3.05363238101169
H         2.61968022503967    3.36831123597867    2.19318978835117
C         2.67170950008156    3.57400735034511    4.31279274295123
H         1.60774797686554    3.41463775436772    4.42655047057310
C         3.46173778707138    3.81321548749556    5.42609904260281
H         2.99593612216055    3.83384678464622    6.40129799251767
C         4.81955721990187    4.02594134772817    5.30663636942617
C         5.27518771801848    3.74673539226682    1.53056184637733
H         6.29255971374664    3.33922450198246    1.67016429754382
C         4.55357529540170    2.91211280012828    0.47531506773509
H         3.62045271797910    3.38458960992279    0.17199423353587
H         4.33118421870147    1.91730641562475    0.85642117053596
H         5.18361129637391    2.81360945187508   -0.40683134666241
C         5.43199662894946    5.19449153302171    1.05304989252416
H         4.45801656086494    5.67398464437630    0.95522409169401
H         5.94552810160969    5.22473418473759    0.09425015916439
H         6.03075156474988    5.75024362408399    1.77474746197303
C         5.72469459586433    4.29011361920391    6.48910076956241
H         6.45806793184322    5.04680372735410    6.17071180113716
C         4.99849141903902    4.82717791037296    7.72077462853124
H         4.37521927860632    5.68018929454927    7.45928104063384
H         5.72569423922266    5.14710577678350    8.46542115257803
H         4.37176688904498    4.05880867239796    8.17028155918394
C         6.50012730257912    3.01425130626201    6.84319378262625
H         5.81103457325107    2.20547309650467    7.08289235095463
H         7.14950107217848    3.18915104878531    7.70007574693734
H         7.11938909265987    2.70941747994390    5.99255514527041
C         9.53102814993032    1.18691766280060    4.45868955308601
C        10.31754093316941    0.88228136002033    5.60397218388883
C        10.79896935153731   -0.39964613154567    5.77324660902192
H        11.41038050550897   -0.63714134049864    6.63305857625069
C        10.51045555846043   -1.40036565942402    4.85903815165819
H        10.89529870807494   -2.40010294151358    5.00979244503078
C         9.71860049762236   -1.11899283462326    3.75505182279424
H         9.49052100464303   -1.91562926779893    3.06086929496402
C         9.22555403176034    0.14916505896409    3.53311255132713
C        10.59775150071519    2.00689032466705    6.57533920269958
H         9.73698467431925    2.69267260940870    6.52837622360321
C        11.83210662216706    2.79932389758138    6.13069984746077
H        12.70316217093940    2.14798667459731    6.06130540167177
H        12.04482397596377    3.60101283976460    6.83659209041019
H        11.64914759982314    3.24744070846611    5.15233784867400
C        10.75569761662384    1.53751905112687    8.02032622182572
H         9.92497039307103    0.89497438856340    8.30483761614040
H        10.77402322711696    2.39707153038530    8.68871967363937
H        11.68517974795028    0.98720109486661    8.15513242728607
C         8.33191485087729    0.50808511642188    2.36999439650665
H         8.58407491753048    1.54504600455723    2.07006503291197
C         8.49211489730965   -0.40659119102889    1.15873985235069
H         9.54149966665091   -0.50559121214193    0.88837274866491
H         7.95479215647838    0.01163830505700    0.30962228514115
H         8.08699467793118   -1.39695554690414    1.36095753271971
C         6.87352678306664    0.53127689795241    2.84612704275110
H         6.60487459632802   -0.42111207090361    3.30183378644873
H         6.20412352365133    0.72447954372744    2.01121430372763
H         6.74597501915580    1.33008679206004    3.58076075907694
C        11.38638360355160    6.54143232614048    2.63353647084198
H        11.96927211243417    6.66003211503304    1.71257278395585
C        12.27490870340777    6.80261114779091    3.84718652068991
H        12.68335796495318    7.81390697942746    3.81816116730972
H        13.10460276131674    6.09703028594834    3.87887945862988
H        11.69259270921778    6.68920350445868    4.76132578673710
C        10.20968609579214    7.50784401845930    2.60193413819942
H         9.56501992828405    7.35671674900251    3.47336895841583
H         9.61581227957432    7.34502273373591    1.70196982701718
H        10.56033871949394    8.54115408416568    2.60964221918397
C        12.18665277979974    3.84920521720972    1.84791795650694
H        13.11380167172654    4.10302492584919    2.37964980930740
C        11.90538262273780    2.35796304900113    1.98987974444516
H        10.96210513476710    2.12360034378251    1.49415870539255
H        11.81327686368583    2.06931893424402    3.03709026003683
H        12.69724013082968    1.76238367881164    1.53405018676838
C        12.30458992125311    4.22945650042171    0.37894804823315
H        12.98087183456691    3.54710975557142   -0.13687552388997
H        12.68134310964455    5.24230257891083    0.25185070125394
H        11.31950102441863    4.16533489896818   -0.08265446915539

