63
CSD_code = VECDAI | q = 0 | S = 0 | Stoichiometry = C24H28N2NiO8 | MND = 6
Ni        0.00015302940281    0.00011045868266   -0.00013587823791
C         2.92384101474661    1.24716531976023    3.86945201327314
O         2.81992788321890    2.33526606153955    4.37214496703181
C         1.83488025232180    0.20731578660313    3.80437482550116
C         0.91105607092327    0.56789890123831    2.63116412306574
O         0.92051897553289   -0.21967444973985    1.65835148397411
C         0.16842614162220    1.73756969245345    2.75380636842920
C        -0.66920868040134    2.16938708733603    1.71981796876715
O        -0.82964366033857    1.59100349542503    0.61877911829299
C        -1.44880077781342    3.44874249393905    1.94716654169047
O         4.04059588668114    0.81782933578965    3.26956553720193
C         5.12407072385571    1.73528790958099    3.24355170175888
N         1.93018292317692    1.28282729183494   -0.68686004967806
C         1.83565876518353    2.60295425340675   -0.78973226754163
C         2.90454461644772    3.45842523574263   -0.57137795901757
C         4.13460527735012    2.91202251711310   -0.24278410345385
C         4.24099421574824    1.53376569808253   -0.14770916332690
C         3.11158197805300    0.76302726907778   -0.37354746784112
H         2.26675070802807   -0.77507447137846    3.62315194524061
H         1.26482185797211    0.22673984808915    4.73202288522421
H         0.25749416541112    2.32901761065444    3.64886148634262
H        -0.76914115767009    4.25491435588059    2.21170558226583
H        -2.14875106939583    3.31009676122320    2.76814079483387
H        -1.99680123924412    3.71084261934235    1.04624111926441
H         5.96554307904787    1.20257556194586    2.80862018973851
H         5.36238244911933    2.06728312144584    4.25633709612534
H         4.86570481054000    2.60740978060988    2.63961679772425
H         0.85965391816301    2.98484200667247   -1.05884592842667
H         2.77705877535361    4.52652001019344   -0.65970985810036
H         4.99246099734759    3.54745019320072   -0.07043454990902
H         5.18090795406738    1.06368169105277    0.09681668452521
H         3.14581027839374   -0.31553247888107   -0.29880417558015
O        -0.92038866211143    0.21975048234065   -1.65853005947829
O         0.83011685492708   -1.59068298088695   -0.61912869836814
N        -1.92982536563201   -1.28255289941949    0.68681806851393
C        -0.91138184387000   -0.56814607294630   -2.63109259235415
C         0.66946096905361   -2.16923003468434   -1.72004972066204
C        -1.83515153806162   -2.60264645731780    0.78997656186378
C        -3.11133277780948   -0.76293235272468    0.37362930334200
C        -1.83549270257062   -0.20773621458923   -3.80413891214089
C        -0.16880132842274   -1.73784873024896   -2.75371231485396
C         1.44956510635597   -3.44822375900023   -1.94766919102999
C        -2.90400548941735   -3.45826614589298    0.57205554992429
H        -0.85904609859987   -2.98437647929247    1.05895176618495
C        -4.24072411238261   -1.53382648490789    0.14820261941224
H        -3.14566636856344    0.31560568646690    0.29860965657400
C        -2.92440341086897   -1.24762370245557   -3.86935309239066
H        -2.26746727274721    0.77459767992050   -3.62285997538150
H        -1.26550446909501   -0.22702008451367   -4.73183626748911
H        -0.25821182943252   -2.32952692700427   -3.64858039877014
H         0.77015851210324   -4.25482328693675   -2.21157475478768
H         2.14886337901809   -3.30933921695154   -2.76916710770283
H         1.99833961542819   -3.70983836109446   -1.04706847511852
C        -4.13418678845397   -2.91205157176033    0.24359615977671
H        -2.77641912936679   -4.52632322629116    0.66068513250404
H        -5.18071925767178   -1.06389142715938   -0.09630753074744
O        -2.82020079553499   -2.33599364177379   -4.37140431780478
O        -4.04144186390010   -0.81804433006257   -3.27015236585871
H        -4.99203410266804   -3.54759664703011    0.07163945105133
C        -5.12497755932099   -1.73544213304043   -3.24430057924355
H        -5.96694981872409   -1.20217017913084   -2.81101384398607
H        -5.36208528612201   -2.06865025536633   -4.25697445334244
H        -4.86736672837083   -2.60684121416395   -2.63899744679949

