60
CSD_code = VECGOA | q = 0 | S = 0 | Stoichiometry = C25H25Cl2N3O2PdSe2 | MND = 4
Pd       -0.15740007609393    6.40102304991087    5.53339542617181
Se        1.54134713610676    8.09082433520446    5.97881835521107
Se        1.31797398570637    4.55592510799379    5.06370468512336
Cl       -0.43454395263482    5.90792827170256    7.77394522165374
Cl        0.13182671330182    6.92569987654658    3.28165425798288
O        -2.03393611342877   10.25644461316720    7.69395351170316
O        -3.44829970531452    4.89368696017804    3.62990073075885
N        -0.19184560779539    9.09446182087693    6.99480681444586
N        -1.97234080015427    7.61140760549259    5.41330170458241
N        -1.62433090461199    4.99603052745960    4.97488120653415
C         3.20843775080446    7.06118554613824    5.68672827387103
C         4.13960787954275    6.76682720414386    6.67382747818372
H         3.96009916768422    7.04123693573320    7.70155577562728
C         5.31277517098313    6.10659592994342    6.35208969499014
H         6.02565648956422    5.88695866532524    7.13399455087941
C         5.58565584738916    5.71906261217395    5.04792880064927
C         4.65050257922318    6.01498277771657    4.06077312905052
H         4.84831694973344    5.73366218582306    3.03663045614531
C         3.48002034187484    6.67983857121423    4.37173036211285
H         2.77273975678158    6.93460249275995    3.59050134678253
C         6.86122629927574    5.01689559801899    4.70167396982891
H         7.32303991268195    4.59072432677190    5.58855557326116
H         7.56436047607685    5.72093876031661    4.25631454073161
H         6.68111938561338    4.22541027920205    3.97760650437021
C         1.85524337833180    8.53902819651722    7.87117638108540
H         1.78935740239697    7.62282137857230    8.46028199288717
H         2.82830546375353    9.01526213233984    7.99622868445485
C         0.66109083797739    9.45698362514854    8.10126031360451
H         0.16442422048511    9.28120404373306    9.06044678140158
H         0.94006312157959   10.51607056149010    8.04677384307581
C        -1.44238154606137    9.49090799340109    6.93963890825194
C        -2.22452024518023    8.85413652634023    5.80544281390974
C        -3.31867757196773    9.56333268143671    5.31151316299434
H        -3.47589537570730   10.56129801096197    5.69044544085025
C        -4.15614322976419    8.96992777659816    4.38837233542576
H        -4.98769474111822    9.51251339873126    3.96467211581714
C        -3.92659476052662    7.64648347196378    4.05052623478273
H        -4.56640394918808    7.08331581037171    3.38826525697604
C        -2.83062998670102    6.99252975078088    4.59264713049255
C        -2.65590223473334    5.52136171448717    4.32026130229788
C        -1.31541459996770    3.60264267165818    4.75208725667712
H        -2.16811040969981    2.98938747061934    5.07486662793726
H        -1.15941053196360    3.42061673360039    3.67581714091720
C        -0.07467634259759    3.23970201896594    5.54467584016867
H         0.29345714656973    2.23774266524311    5.31032001309686
H        -0.24424920164147    3.34938028488911    6.62008061288765
C         2.64024517917610    3.95789593218557    6.34778268064977
C         3.72566526921818    3.25113602213950    5.84431750652574
H         3.79542158472613    3.07123604545183    4.77980565749429
C         4.69854869038008    2.78838087751121    6.70970821554522
H         5.53905607407208    2.23389987421605    6.31914560890221
C         4.61200101853367    3.03606945442636    8.07494615741239
C         3.51827166323577    3.74831575649377    8.55805099640261
H         3.43903508177158    3.94493113947591    9.61728595008547
C         2.53257990199443    4.21084385471848    7.70700632924313
H         1.68529500344217    4.76467362249309    8.09026345078783
C         5.66308993455415    2.53487731790842    9.01418720110344
H         6.58886605893945    2.31903274733537    8.48731683492126
H         5.32330049874977    1.61606911238154    9.49235740489167
H         5.86007851460396    3.26253527164832    9.79805344534608

