55
CSD_code = VECHOC | q = 0 | S = 0 | Stoichiometry = C16H29O6PSi2W | MND = 6
W         1.64800506358456    0.81288907660599   13.58900621881343
P         3.18299005663681    1.04501040577846   15.48248686668268
Si        5.21743435928077    2.90535396514914   16.79239899833894
Si        6.07312404861317    0.38640628475246   14.80990898389605
O         3.55048835091629   -0.22535263989800   16.40375800030986
C         2.49585977890660   -1.03678970157821   16.90731307044842
C         3.09744173526449   -2.24474316901566   17.61342291017465
C         3.79703530478615   -3.19109637094280   16.63978622620040
C         4.40701897200509   -4.38580519795516   17.36133895434114
C         4.82414499994840    1.77005609433770   15.29289767883639
C         4.89709546165313    2.01059625222556   18.44437869775800
C         7.02616449540644    3.49933516664803   16.72902725900219
C         4.09376813801780    4.44295129191952   16.63150706133418
C         5.29076667896976   -0.95099714950683   13.69985483322687
C         6.81326745940474   -0.43421697365090   16.36543781516875
C         7.46077985070250    1.22013440396387   13.80073537096415
C         0.34434488721494    0.74144006859143   12.08868042021533
C         1.84398975995483   -1.16601513726729   13.40709234301258
C         3.11835959705367    1.19699856892241   12.29463037796733
C         1.43578375721541    2.78802295803029   13.79459523475677
C         0.19420891650601    0.52904968635301   14.92653812963462
O        -0.41664366820081    0.70558122452439   11.23682454517956
O         1.88239665275739   -2.30413596414091   13.29509138859780
O         3.94411773383600    1.50987653357237   11.56799992185109
O         1.34393442911414    3.91698139025884   13.94757878509217
O        -0.61959215871304    0.40100575131979   15.72079410990503
H         1.88611452825399   -0.44797205738234   17.60591179924004
H         1.84767953886265   -1.36226603742968   16.08124463560591
H         3.81177655523013   -1.89226811058259   18.36042444940609
H         2.29576932803625   -2.77368252490949   18.13247901159427
H         4.57967660844398   -2.64463676970881   16.11227322932365
H         3.07449167045115   -3.54181300761092   15.89958331475285
H         5.14650615372244   -4.05702197247606   18.08825504937603
H         4.89497747476493   -5.04929354607536   16.65202059779969
H         3.63886051171545   -4.94982223449496   17.88600417930026
H         4.72669414883619    2.42149827315361   14.41926059774577
H         3.89807231126244    1.58671141418898   18.47830459089229
H         4.99098700492448    2.69742110409664   19.28036705319915
H         5.60126424215987    1.20098500377384   18.60336706734199
H         7.73216379748605    2.68562397920376   16.84879260605462
H         7.20910382842302    4.21185692941621   17.52594099812239
H         7.24858495746436    3.99669937264636   15.79118231889172
H         4.41152053314007    5.07218855970382   15.80476613433233
H         3.05682222198062    4.17321065026266   16.45100388445144
H         4.12230830801384    5.05089575120757   17.53068251178609
H         5.91559495203479   -1.83906267324106   13.66058206115916
H         5.16600792717053   -0.60236243150026   12.67909245133687
H         4.31484546898619   -1.24952906051210   14.06887370454911
H         6.03865415184827   -0.80544212210299   17.02656319608348
H         7.44382043241370   -1.27292716849014   16.08657858205856
H         7.42784285090010    0.26045219184043   16.92829299967402
H         7.99144303119527    1.96917997224189   14.37670517683715
H         8.18595160569685    0.48090087909644   13.47865718194098
H         7.07153537837225    1.70343220492612   12.91014864247022
H         2.61864581736968    1.86720661176228   16.49465777296994

