61
CSD_code = VECLEX | q = 0 | S = 0 | Stoichiometry = C28H29ClIrNO | MND = 8
Ir        0.88283293286440    5.48188486750392   10.04744040126613
N         2.48566172911057    6.71529900049475    9.98154476048600
O         1.60521416693751    5.34090828615423   11.96091703662736
Cl       -0.26779275342369    7.40267628459810   10.72826304635463
C         1.30221004663766    3.64409956396869    8.82155350733776
C         0.71048388432776    4.62877773704310    7.94409248344265
C        -0.58285683935944    4.92752537078445    8.42459662775079
C        -0.80075716828278    4.14496530359942    9.62303612508514
C         0.33416619167594    3.30015831141299    9.80818654351288
C         2.58670769405507    2.92739784644587    8.55667169228814
H         3.01575804024955    2.53895057315815    9.47705683250538
H         3.31786226774030    3.58889265505118    8.09606674120527
H         2.41346325140444    2.08990260295904    7.87752544972435
C         1.32704278583439    5.10599800026048    6.66721596344238
H         0.87836015392672    6.04024292279504    6.33691120769342
H         1.17535542055663    4.36061206038965    5.88419698591523
H         2.39951949126468    5.25793153857580    6.77939971533577
C        -1.62163472431934    5.79838174732730    7.79546726825064
H        -1.91823513234276    6.59034901606610    8.48305182894347
H        -2.50553137938632    5.20525317013869    7.55882918831604
H        -1.25427094775685    6.25582533369721    6.88038336788537
C        -2.11516285844012    4.02470924315288   10.32803627404231
H        -1.97890111142121    3.62508513155602   11.32939641361955
H        -2.77749313179493    3.35654584488221    9.77320050108528
H        -2.59486237464958    4.99750387281170   10.40711280749460
C         0.44095199140306    2.21855660094166   10.83136034834147
H         0.16585574454520    2.59705027226593   11.81351152744314
H         1.45398307317263    1.82970610108330   10.88546733185112
H        -0.23648096787362    1.40222583346111   10.57531744484749
C         2.67898737760089    7.62993904806553    9.02866775858919
H         1.98520396771636    7.61366878625431    8.20037680494608
C         3.69128778961375    8.56523297362189    9.08799791182303
H         3.80696020984075    9.28440073976094    8.29322779134534
C         4.53730916937406    8.56721770862401   10.18878162962507
H         5.33563214780470    9.28877937888822   10.27091861088208
C         4.32797409761615    7.63127955873351   11.18506034662868
H         4.94700802783600    7.60261663674930   12.06790004310452
C         3.29569050352197    6.71317705049068   11.05184850891322
C         2.94644903114629    5.65258317931386   12.07999040860458
C         3.79151128749346    4.39497380963504   11.85569713612630
C         4.87982547107459    4.33269021809056   10.99744049670871
H         5.20298680872005    5.21195132895206   10.45776482324004
C         5.56547501664190    3.14032605340295   10.82659694824383
H         6.41120993290735    3.10158306011219   10.15491844392923
C         5.17063146384521    2.00266410572380   11.50814959983945
H         5.70673002094166    1.07490206918344   11.37050626100715
C         4.08401437812948    2.06035176870646   12.36657342253118
H         3.77114656218607    1.17610186356428   12.90309855237088
C         3.40027886586210    3.24912584104720   12.53786868493877
H         2.54619701440893    3.31224052373103   13.19423585288144
C         3.19989924452020    6.23227217599132   13.47327571350981
C         4.37766861097121    5.99746999115017   14.16832845518711
H         5.14493669341274    5.36713752767321   13.74093798257775
C         4.56816666917216    6.56636734956912   15.41640729096422
H         5.48587481997744    6.37810983298586   15.95515379922963
C         3.58870151074093    7.37053769245230   15.97339024070363
H         3.74132719153287    7.81077024424885   16.94814996709116
C         2.41390702590641    7.60604920983732   15.27864607095872
H         1.64659599881503    8.23272982188171   15.70846921861665
C         2.22008627162890    7.04118233136163   14.03150062809357
H         1.30857734238314    7.20485302761678   13.47751117469443

