64
CSD_code = VECLIB | q = 1 | S = 0 | Stoichiometry = C24H37IrNO(1+) | MND = 7
Ir        5.31338696625338    0.46315143478197    6.43664431938139
N         3.49120953303573    0.58513171027154    5.47642113699415
O         5.80925696971178    0.08891754770555    4.64866114318656
C         5.18984329105062   -0.04682819963571    8.59075626402971
C         6.46402290603243   -0.50595549767283    8.05547513332053
C         7.18767682240395    0.62625782830508    7.59320053276502
C         6.37035781445391    1.78847488973944    7.83452653882660
C         5.15001714527282    1.36206384665614    8.47326975022287
C         4.22040855049594   -0.91989565332412    9.31551776139817
H         3.25348348336541   -0.43735403377543    9.42826387522629
H         4.60748850918282   -1.14102741015806   10.31086748339550
H         4.07521880299556   -1.86584409807427    8.79826902929679
C         6.96735051805876   -1.90324287171990    8.12961189032384
H         7.67305100724171   -2.11297839595528    7.33004718201819
H         6.15474151437634   -2.62362017852386    8.08245564986529
H         7.48437910739789   -2.04365101352101    9.08037472218300
C         8.60194736455135    0.63834057193847    7.11806644124477
H         9.27195976046931    0.76508853731827    7.96905836214465
H         8.77645922647988    1.45604606182678    6.42419734659579
H         8.85554072433726   -0.29388293170126    6.62114199175852
C         6.78768921795535    3.20152190371395    7.63940107994707
H         5.93230412790880    3.84968873370049    7.46599464139622
H         7.48322832639104    3.30097122924876    6.81006735580032
H         7.29301819180260    3.54840602669752    8.54258981403314
C         4.13727794805672    2.29465960466411    9.05622191619245
H         3.84660977089862    3.06487695212473    8.34390273883071
H         4.56641203669474    2.79295269681124    9.92576178901187
H         3.24677593189469    1.76411739123887    9.38179809948292
C         2.32781539725437    0.85525099784563    6.07943198884927
H         2.37346748541598    1.05595800019423    7.13939780405370
C         1.12444849573418    0.88304715601651    5.41104135378782
H         0.21274800491036    1.10699250070769    5.93949016212724
C         1.12305189243551    0.60745518311116    4.04955700177871
H         0.20156745244506    0.60725210337206    3.48864762911484
C         2.32204995299965    0.32976217551946    3.42283248428133
H         2.33264728041007    0.10357411954766    2.37237860480852
C         3.51076415523155    0.32856600087231    4.14953584156510
C         4.89659924051780    0.05650180149549    3.59724095342074
C         5.30217248738866    1.27938732239331    2.65220075787008
C         5.32493906392197    2.54029354244007    3.53516595147159
H         5.60415874357542    3.39706785133254    2.92739150518505
H         6.05427317729613    2.44246566027937    4.33668405638078
H         4.34680968472042    2.74361758969482    3.96885120960115
C         4.34801409622374    1.57729937224758    1.49402631743992
H         4.81725461994528    2.32873655831965    0.86208845457531
H         3.40875224261713    1.99408428870327    1.84770755987236
H         4.14562913182649    0.71358740218617    0.87414876415115
C         6.71288031510488    1.07391387265555    2.09882663562183
H         7.08701979799493    2.01833079268706    1.71033650462590
H         6.71749768178020    0.35748087654139    1.28369804541959
H         7.38238070836785    0.73690805089699    2.88398690226356
C         4.97562237364348   -1.44801747648714    3.05191270464167
C         4.41215209623433   -1.69884957883878    1.65575781205646
H         4.47844777655503   -2.76692698568919    1.45659295666128
H         4.99327467126418   -1.19218663556953    0.89221193973612
H         3.36753279491710   -1.42113290751888    1.56346399335371
C         6.42535091909326   -1.95574892740112    3.05713973123977
H         6.41974465146195   -3.03210779928281    2.90403119826053
H         6.90711122250514   -1.74559285584392    4.00646929721087
H         7.01291114146200   -1.51232693233477    2.26299671024723
C         4.19641194892652   -2.31450689863456    4.05727830053011
H         4.39412396558816   -3.36584998508593    3.86488886315063
H         3.12257840012315   -2.15804416383652    3.98234242188120
H         4.51528136132337   -2.09402875521944    5.07818359389817

