53
CSD_code = VECMAU | q = 0 | S = 0 | Stoichiometry = C22H27ClIrNO | MND = 8
Ir        0.75367108407091    3.80476236510281    2.12905778422148
Cl        2.85085304283765    2.86423593357302    2.60433574957787
O         0.80588097160856    5.11711309055420    3.70173130532197
N         1.80843893313190    5.35961002610700    1.33075374853597
C        -1.40906929118543    3.92539536533606    1.59953992229992
C        -0.83469288736003    3.22816835658818    0.48157759310689
C        -0.22312456471163    2.05400007469126    0.96952341819024
C        -0.46203169785350    1.98459640481278    2.39771087309336
C        -1.25846313586201    3.10262800994537    2.76306383479528
C        -2.27203957066753    5.14276771607561    1.51891987555220
H        -3.31761133444325    4.85702832310174    1.38388718626073
H        -1.98233953970688    5.77335624672904    0.68082714506067
H        -2.19150438935195    5.72213851470967    2.43565492238451
C        -0.97786354065110    3.65889665385176   -0.94271454459883
H        -2.01038282035183    3.51106799107739   -1.26427958513808
H        -0.32952170006512    3.08660629410652   -1.60077213350442
H        -0.73855983644896    4.71474700917797   -1.06378434108346
C         0.40737622730037    0.94945376519791    0.18265432437295
H        -0.22845355874367    0.06309885227630    0.21496480904354
H         1.37465405679847    0.68144475414168    0.60625781430115
H         0.54937316184746    1.23062248663400   -0.85843063758705
C        -0.13680719679425    0.78865296477499    3.23619223792293
H        -0.80648226412686   -0.03663937433062    2.98524109862563
H        -0.23878376564702    1.01626038456556    4.29362175182243
H         0.88679304145732    0.46558642536050    3.05744300823700
C        -1.84988765110117    3.40603472145393    4.10024895947159
H        -2.88367237379793    3.73003069748143    3.98765428649373
H        -1.28310939704645    4.20717288240743    4.57607469724183
H        -1.82101820189455    2.53262154310249    4.74600545416251
C         2.27593842198038    5.38373119871577    0.04905679460026
C         2.28696771952039    4.20682683727720   -0.72130987184824
H         1.97995009282863    3.28627581975024   -0.25129021220240
C         2.73250568123032    4.22412994071952   -2.01557788756603
H         2.75051860989952    3.31150413959934   -2.59218721008331
C         3.18140708987265    5.41588321748126   -2.60113906526972
H         3.51739428158344    5.41319652893998   -3.62707795527720
C         3.22033164853207    6.56716129899397   -1.86419620782350
H         3.59656105620372    7.48559651292951   -2.29042665422119
C         2.79228357317116    6.57647664671473   -0.52187201819996
C         2.88404940488150    7.71812120762437    0.30029252353865
H         3.26534662962198    8.64106897806716   -0.11138743455765
C         2.51895787913908    7.62312923956546    1.61294466012735
H         2.62317552292920    8.46334104738594    2.27932419540708
C         1.97406038985963    6.42554259180113    2.10489840008351
C         1.59636280969077    6.23513610755333    3.56047890036362
C         0.81698173775846    7.44820897274739    4.10881045486288
H         1.45439237171218    8.32151828853928    4.20732275081297
H         0.43056908806348    7.18069420728846    5.08811779635984
H        -0.02160055087454    7.67838571750902    3.45608281698461
C         2.93114827790240    6.07182546395355    4.33056870738696
H         3.58138668284662    6.93031833425127    4.18453918546547
H         3.43004247182618    5.17028748669581    3.98346435741950
H         2.70614730859122    5.95668173727666    5.38680241544177

