36
CSD_code = VECNOI | q = 0 | S = 0 | Stoichiometry = C15H13N3PtS4 | MND = 4
Pt        5.69373547286840    9.09417667851117   12.00147650411258
S         4.97901511292178   11.26494994847066   12.23060353658809
S         3.58311698676294    8.35835668720562   12.51446781426631
S         1.05389359820532    9.98885743603479   13.20241465743656
S        -0.03263977059118   12.78177234501902   13.52425171028712
N         7.59132404694561    9.58050724664353   11.54186227941098
N         6.45263988251214    7.24948837201606   11.75892211503691
N         2.46797036229516   12.11001400473643   12.89913228052188
C         3.31941942344679   11.06170168035857   12.64804467843764
C         8.40610935101244    8.51423154487763   11.30635385917380
C         9.75627734350087    8.70706815209566   10.99075935085541
C        10.27081976014266    9.98083200598663   10.91614132430943
C         9.41967623822765   11.06110558556217   11.15764997234592
C         8.10104523413708   10.81361631590366   11.46337235830532
C         7.77043547542558    7.22012603515494   11.41637100898316
C         8.42074002972476    5.99977103865036   11.19684447628160
C         7.73024689430919    4.81767392532437   11.33315117355733
C         6.38195719516452    4.86825696885574   11.69127221823979
C         5.79183966323564    6.09606286869464   11.88976659191532
C         2.87290118487304   13.49219393386083   12.78034211159344
C         2.70918700269383   13.98909016972614   11.34911500549370
C         1.19889966429584   11.74952965229947   13.19981299471746
C         2.74106603355128    9.83305269103240   12.76722516970232
H        10.39107973472164    7.85587604209509   10.80865739909166
H        11.31009343372857   10.14212762233492   10.67744875404117
H         9.78072513349479   12.07483132348698   11.10863910326249
H         7.41691134894027   11.62947149228279   11.65537388789803
H         9.46157874736143    5.98917100340291   10.91919996393907
H         8.22025366999869    3.87132398472339   11.16727434811773
H         5.80402860560114    3.96736822294662   11.81198493912553
H         4.74805641004641    6.16731254394355   12.16459999366981
H         3.91817821393086   13.55788117593785   13.09213397432246
H         2.24596734092948   14.07716440630330   13.45761176731581
H         1.66745217384185   13.91329415461929   11.04762802132331
H         3.31952318788461   13.39694730818214   10.67111497205260
H         3.01767581386278   15.02819543275535   11.28437968427834

