38
CSD_code = VECPIE | q = 0 | S = 0 | Stoichiometry = C17H13N3PtS4 | MND = 4
Pt       16.83347466626880    1.55565808465619    0.87963371774651
S        16.28649448099508   -0.09830448040544    2.36718845870479
S        19.03868016991017    1.37683702530631    1.46373754732755
S        20.34682803678523   -0.50372173183702    3.53274508204300
S        19.79516096449641   -2.66586366957042    5.55900100120680
N        14.92359014888203    1.83336821818611    0.26476187759961
N        17.17784278086992    3.02670907124670   -0.46360023171572
N        18.00892273304040   -1.45492866291988    3.99740052116154
C        17.82848570802868   -0.48813837243229    3.03747773233535
C        18.97652429748083    0.13521738775476    2.65183514393226
C        19.28705838842089   -1.60902301788317    4.41330099883820
C        14.82837133777202    2.81286302339205   -0.67830603813440
C        13.59854299877274    3.19650281431242   -1.25850890718126
C        12.44351581824978    2.53105957444785   -0.83527313816581
C        12.56086751340618    1.53822719924727    0.12223779753609
C        13.80688835229535    1.22019058140484    0.64439495544262
C        16.03129151772366    3.44970928326420   -1.06630739815879
C        18.31971794430885    3.60895005819104   -0.81119035815308
C        18.38741528287881    4.62375079375057   -1.75682442567121
C        17.23437203685926    5.06796936751521   -2.37970178059516
C        16.01427021377692    4.47616081421488   -2.03753483027530
C        16.91169067155117   -2.20068071853035    4.57017731934274
C        16.28325843823880   -1.44307217891887    5.73363866796242
C        13.60864101485679    4.23516565777339   -2.23602264950842
C        14.75998133298269    4.84518200486732   -2.60721433479254
H        11.48379076625325    2.79352522045998   -1.25263038728510
H        11.69202532377976    1.00430237273074    0.47146908595269
H        13.90956061500892    0.44654025091475    1.39347413196649
H        19.21532948017650    3.25500151680763   -0.31863703844395
H        19.34503149643132    5.05677020444056   -1.99600098681495
H        17.26592631770126    5.85546176528289   -3.11675197574113
H        17.31155207493471   -3.15774108010842    4.91381166046382
H        16.17685606267287   -2.36759558371835    3.77858560597848
H        15.90788579815593   -0.47890122962673    5.39844142043331
H        17.02267571997379   -1.28480911070067    6.51482116078375
H        15.45854485195945   -2.01886749373723    6.14305808935026
H        12.66540428841406    4.52398025851806   -2.67496232390114
H        14.75373035568621    5.63044478170290   -3.34822517156955

