50
CSD_code = VECSIG | q = 0 | S = 0 | Stoichiometry = C20H24NO4V | MND = 5
V         8.23091326634586    3.33483739074911    5.57236446040857
O         8.46628845356981    4.77417734444767    5.13502099399031
O         7.88247263938381    2.44081653627878    4.22589038653515
O         9.56253528528637    2.84413935782292    6.45325668744797
O         6.94956980703698    3.18740027781545    6.56839961009568
N        10.50511500422714    3.00674042095635    3.89093457661200
C         7.65200303674541    1.48954971650989    0.69103196072104
H         8.13108358699851    2.33905079417485    0.22570833233235
C         7.05456663305859    0.51532941718672   -0.08826645960004
H         7.07071898096715    0.60304816578164   -1.16474221780277
C         6.43191122798764   -0.56838606654584    0.50862064712179
H         5.96193074910957   -1.32581341478138   -0.10116471657353
C         6.40995902772627   -0.67517823489252    1.88867274018120
H         5.92274152980132   -1.51739000608982    2.35800856363719
C         7.01287607845562    0.29525599078420    2.66914949343102
H         6.99816679536423    0.22464492155491    3.74868454580633
C         7.63442699166370    1.38609565522579    2.07663493261441
C         8.32508155086514    2.42530012502222    2.93094609944093
H         8.17900432744677    3.43180003447613    2.49471080026742
C         9.86068815200857    2.12338389556449    2.95966332541760
H         9.97132801871318    1.08387065506420    3.28353352563953
H        10.26035467811897    2.22560657257629    1.94106516308584
C        10.89991755667748    4.29103725721010    3.32358502191881
H        11.43039653557579    4.85206215886595    4.09589180738157
H         9.99016173982731    4.84877696144542    3.07776271447824
C        11.77533907206433    4.17899076983954    2.10499817757096
H        12.70679204484591    3.64502660017788    2.24045789950557
C        11.45883502439453    4.68127620158206    0.92594023175625
H        10.53507110440906    5.21599204341470    0.77220352494596
H        12.10920605652177    4.59569692431095    0.07156717575281
C        11.33727739243923    2.44702587621420    4.94134937154103
H        11.06753961835159    1.38520924574164    5.03070375627957
C        12.82302414544080    2.53444115804202    4.66045673714170
C        13.40275043552384    1.55570565941809    3.85705992177341
H        12.79248407762178    0.74557304758663    3.48305779240515
C        14.74402168492195    1.60983653183059    3.52465485752983
H        15.17427623004312    0.84222737343441    2.89832933481462
C        15.53310091843585    2.64557127616771    3.99586335573328
H        16.58074087578173    2.69090985847541    3.73846832073305
C        14.97059906131737    3.61943677814887    4.80175349722274
H        15.58034724052129    4.42809514598515    5.17680966423888
C        13.62655777118164    3.56587641611082    5.13173814431037
H        13.20963360011561    4.33364906742967    5.76485548007214
C        10.89959629416043    3.08921176715077    6.28530073914499
H        11.48307509971415    2.65209892447947    7.11360322509810
H        11.05398832450616    4.18025669808090    6.25689595099374
C         5.91397728363736    3.75881693961488    7.25497652717085
H         5.89682483380182    4.84546857921195    7.07483041475132
H         6.02957792186497    3.57638075207545    8.33391715357999
H         4.95665223542104    3.32607043827222    6.92684575134574

