92
CSD_code = VECYOU | q = 0 | S = 0 | Stoichiometry = C29H59BFeP2 | MND = 6
C         8.51933707968804    9.21632127496947   14.40773680896307
H         9.30086922517105    9.64404666152637   13.77356109253159
H         7.60912261866790    9.80397520366923   14.25928828412567
C         8.93309146136822    9.32128834410753   15.87165372435861
H         9.33793431242846   10.32348613266751   16.04825515761000
H         9.72226989944749    8.59855207712988   16.08286170122885
C         7.76613533075377    9.07100152355765   16.82374788944942
H         6.85449179912367    9.51070268048115   16.41317329255657
H         7.95884065115433    9.55660278873824   17.78176126191142
C         7.16996188661934    7.88187447006391   12.29530334134290
H         7.16569105918641    6.94929916493398   11.72122645301457
C         7.68828033831785    8.99361296703695   11.38671933799458
H         7.70606925261360    9.95216478790861   11.89874896810841
H         7.02444698575305    9.08876225411966   10.52764323917339
H         8.68405585644750    8.77989203675919   11.00910453948090
C         5.73208597773422    8.17632568254045   12.71006181439094
H         5.34935387039024    7.37391058961908   13.33405446737714
H         5.09217529216485    8.26442858112060   11.83306680429511
H         5.66797593263579    9.11255629749527   13.26211516611490
C         9.84041570400304    7.13020624938766   13.01467683972884
H        10.06096517703275    7.95202444247693   12.32289285679143
C         9.77798436986978    5.82014651508573   12.24214044238781
H         9.54253677177215    5.01296354861575   12.92859802534050
H        10.73861919486382    5.60992386830427   11.77379153272298
H         9.02237231690989    5.84953137250474   11.46073079516587
C        10.94308159537993    7.06837936585151   14.06474127072485
H        11.14920695502451    8.04978193295446   14.48495579978129
H        11.86446267077482    6.69418014675712   13.62112288020290
H        10.64394532812610    6.39167359631053   14.86383583324800
C         8.27938457103447    7.06076855827522   18.79966278315921
H         8.14090751236960    5.99976100306629   19.03856383175346
C         9.77644961678858    7.33773583007526   18.67764160310246
H        10.18426827410421    6.82493581837081   17.80942220439247
H        10.30366155773043    6.98612161442834   19.56278948706634
H         9.96506844998154    8.40453390601298   18.57402103448578
C         7.67770165161216    7.89596807935462   19.92724193402153
H         7.81388932369008    8.96145364496243   19.75477617530509
H         8.18440433293906    7.64863424175193   20.85938456118969
H         6.61706833103545    7.70524936104462   20.06175337962148
C         5.67098557216393    7.29088870316209   17.47446923183899
H         5.41940418423668    8.19698970029212   18.03979911425150
C         5.18571462789866    6.06065453428802   18.23038946952443
H         5.37274877965112    5.16794663203796   17.64137234311228
H         4.11342204920013    6.13181427450648   18.41357978603346
H         5.68550995609800    5.94516079530803   19.18802314853452
C         5.00778408907951    7.33371900102152   16.09873107463132
H         5.23998753487845    8.25888872137449   15.57653173170214
H         3.92408997376661    7.25058987885206   16.17697513781988
H         5.37408029879395    6.48883879295311   15.49657822137374
C         7.35714621170745    4.06716163424145   16.20208319070301
H         6.97398480090228    3.85404946987037   17.19669414538318
C         6.40753505030082    4.15586260822649   15.19506827717162
H         5.34468494374343    4.07266419928195   15.43490039614677
C         6.75745807078503    4.58090979549416   13.89610808906095
C         5.64468191664640    4.65605970137405   12.87872811911174
H         5.93109725946998    5.28157638437562   12.03222921579196
H         4.74161217427847    5.08600373017830   13.32353437336210
C         5.30960556664975    3.25670749347063   12.34686951984113
H         6.20464660935444    2.82557630402173   11.89292167801099
H         5.02428174234276    2.61484222487841   13.18305019751926
C         4.18389877963700    3.29256061937697   11.32098257856635
H         4.45965046082537    3.91537446660665   10.47201874118723
H         3.27614006942276    3.70041448256132   11.76197204043883
H         3.96634522020669    2.29161162511943   10.95496703880861
C         9.81012639024982    3.95692121226393   17.30140174475615
H         9.49309198933421    4.68329397877847   18.05643842402968
C        11.29032760403234    4.24259839057502   17.02429804835148
H        11.37190981415234    5.28351176919681   16.69554200252518
H        11.87512921882899    4.15068809316786   17.94713038201583
C        11.92418738336008    3.35095916443163   15.95783680510510
H        12.17030269819109    2.38343401615766   16.39099686220258
H        12.87681585475717    3.79777014575589   15.65036803317466
C        11.05611791382365    3.16277846313775   14.71218646754348
H        11.46728952979215    2.33181047758967   14.12698462324018
H        11.14833177343096    4.06239267940279   14.10008693933248
C         9.55949946363662    2.92759607156418   14.96435671352126
H         9.09654521380883    2.88399157493448   13.97051313455438
C         9.25966803439478    1.55976629179966   15.60289411629112
H         9.66115870558072    0.75829654596066   14.97189595646107
H         8.17225157878583    1.44598822368483   15.62327427642745
C         9.80009343704520    1.37492487661194   17.02061151206892
H         9.31120694015867    0.50126356252003   17.46654977922532
H        10.86146230782241    1.13662026504942   16.97719127311016
C         9.57306291507849    2.57648809040316   17.94017061822795
H        10.20825274272165    2.46284205281701   18.82640190335650
H         8.53562969468857    2.55175433283772   18.28414666206492
H         8.93810051987097    5.31421991265839   15.40278234190589
H         7.66447130324614    4.17428676173592   13.47141411794827
B         8.91860544580481    4.04112900079228   15.95504347444132
Fe        7.46712924911649    5.99267800293611   15.28742788715848
P         8.18995845060937    7.47317344778897   13.82611449904343
P         7.50819535093801    7.24578020852762   17.10193792777601

