40
CSD_code = VECYAE | q = 1 | S = 0 | Stoichiometry = C10H23N4NiO2(1+) | MND = 4
Ni       -1.29091366886133    8.03088166022575    1.27078258247033
O        -1.52663823888405    6.47654420420309   -0.90151325174339
N        -1.27007518978702    8.38357713887907    3.26743575622241
H        -0.64712343735577    9.10400474986667    3.63461943807195
H        -2.22364484727981    8.68459121519399    3.49183719063131
O        -2.26553239669388    5.22585464053316    1.15825386194271
N        -0.62967131758181    9.83789663957567    0.61556731059816
H        -0.71126254432655   10.66448565106374    1.20941443803763
H         0.36400964157937    9.74181619577356    0.38554500762972
N        -1.76299068557970    6.22518139037615    1.92157639212486
N        -1.45190878674980    7.68150544625484   -0.51393794446961
C        -1.39416192713523   10.05823870729563   -0.64160225609083
C        -0.99753790973618    7.11429150774628    3.98903364721877
C        -1.97157065838042    4.69106433255338    3.78631087714894
H        -3.01692618292084    4.69615596367906    4.09549485735294
H        -1.35715768416213    4.47394949036962    4.65364595852429
H        -1.86065846882972    3.90458927528308    3.04144459504823
C         0.52032563620153    6.89832814185254    3.97816202682395
H         0.88925315830033    6.97496856705656    2.95320353061148
H         0.77386309588716    5.91453280755943    4.36052398632458
H         1.01723587549703    7.64324188276543    4.59536343562981
C        -1.62076632366380    5.99716600432602    3.17742537132259
C        -1.45531290145319    8.70107866484679   -1.30621709706100
C        -1.58423095753705    8.53951089513150   -2.78204161684075
H        -0.65027039166257    8.79645994715406   -3.27983564707308
H        -2.36514154206633    9.18952124963959   -3.17025980884243
H        -1.82589951196697    7.50472295609315   -3.01271266117334
C        -1.54402417859156    7.18961733450192    5.41392915251925
H        -1.14284048683085    8.06556512368074    5.91983983791262
H        -1.25699706999890    6.31689717913916    5.99102350968889
H        -2.63014635018618    7.25501942699868    5.41102992388603
C        -0.72733192110786   11.12623449448752   -1.50336052809946
H        -0.64462840112574   12.05790930178807   -0.94775870960732
H        -1.31332722051653   11.32124283434357   -2.39552838220084
H         0.26853174474775   10.81327448935837   -1.80937709020685
C        -2.81541486579037   10.46593810841954   -0.23593194554896
H        -3.21680153222817    9.72365337416332    0.46344531288756
H        -3.46600216554681   10.50474069053268   -1.10403306118785
H        -2.81780942526985   11.44468856371607    0.23794966789777
H        -2.07629996240772    5.50015975357028    0.19915233161678

