69
CSD_code = VECYIO | q = 0 | S = 0 | Stoichiometry = C22H44FeP2 | MND = 8
Fe        2.29178122036548    4.62669815611703   11.71932598950977
H         3.56740032116080    5.01833690424268   12.22832658238157
P         2.30068782096063    6.31012703469124   10.36925843810683
P         1.45978298321728    5.94135391680278   13.21411479547237
C         2.05268604815563    7.88228531389333   11.32845081141035
H         3.04277894519143    8.17351159034585   11.68255590741708
H         1.67285884718892    8.68225962449014   10.68679780851859
C         1.13068955205136    7.63393763536471   12.51453321926176
H         0.09006241305650    7.64483435867444   12.18456526791032
H         1.25426455715037    8.40247598787341   13.28383720125851
C         1.01118804754198    6.45905952759956    9.00570872916973
H         1.18955779714414    5.58094221335982    8.37328710282406
C        -0.36991585648181    6.30760276381783    9.63085463109281
H        -0.33692246827905    5.53742742493658   10.39807343110372
H        -1.11039783615255    6.03036921841559    8.88186322375002
H        -0.68891472072197    7.24115456811600   10.08894192441801
C         1.06527061356121    7.70570131225985    8.12849948660540
H         0.88576161497138    8.60726795566949    8.70986791998206
H         0.28476529436548    7.64251081450181    7.37025672275929
H         2.01900077325393    7.80921341060074    7.61917733205321
C         3.86005229341152    6.76660043743890    9.43551025096845
H         3.75569917800983    7.80534133049256    9.09394001382652
C         4.08058560499404    5.85057974339793    8.23474695527256
H         4.16024898704272    4.81953082160297    8.56702547370728
H         5.00880608866557    6.11658098905129    7.72934433673056
H         3.27383589645097    5.91920460367234    7.50923023824021
C         5.05565529643318    6.66215806714351   10.37512528235037
H         5.02918080993176    7.43083421463252   11.14339845529566
H         5.98690922054408    6.76732474289889    9.82072402111148
H         5.03916341604714    5.69328174722075   10.86920826558524
C         2.55931557764012    6.37828037904633   14.66420213600676
H         1.99144394511314    7.01065048779813   15.35596050814032
C         2.98144448884210    5.08683148624060   15.34952926044968
H         2.11871993031099    4.50210357377034   15.66387015257886
H         3.59434238965410    5.29465924088843   16.22549357097502
H         3.56228185507697    4.50372136811259   14.63948487319933
C         3.79904992527645    7.13259706525180   14.20313576579340
H         4.24310998941160    6.59542408149628   13.36776602133216
H         4.52691808835174    7.18470045370647   15.01129376981743
H         3.56472516870357    8.14912310932965   13.89571926515247
C        -0.15711264707471    5.58546879730602   14.10875448902367
H         0.03399453837967    4.64070552638970   14.63503411474036
C        -1.26003222983652    5.34105140247840   13.08309595013864
H        -1.60673553554123    6.27824770746127   12.65359024325347
H        -2.11450338333175    4.85181189196967   13.54919624602356
H        -0.89635270458826    4.70807149738792   12.27812063917233
C        -0.61624457333974    6.62669094767096   15.12629886909019
H         0.03473920459473    6.65961049637280   15.99535005172102
H        -1.61670312639054    6.37015872872732   15.47413928267091
H        -0.66035384654679    7.61779145942957   14.68076496861293
C         3.53102558416026    2.26907685336362   11.91269811905292
H         3.36376910878093    1.20427423747193   11.66700956426781
C         3.38555949893975    3.16836692631782   10.71153461256817
H         4.26826313909896    3.32279462390493   10.10443655399228
C         2.13452155041386    3.31819465247466   10.11514593676446
H         2.04233750593246    3.60712777025313    9.07489342506270
C         0.96830364993887    3.20288101763506   10.90827601837907
H        -0.01484859793843    3.23943637222190   10.46294317441801
C         1.14990190523596    2.96084102026725   12.28123811443443
H         0.29637014597107    2.95594133758486   12.94621415446240
C         2.44665133900177    2.83931200880990   12.79144255422674
H         2.55433536111855    2.68457041575514   13.85765838186503
C         4.90232971006462    2.40765722755163   12.57168964619938
H         5.10245472762022    3.47393517135258   12.69246216186199
H         4.86313053083673    1.95727422490290   13.56705595406843
C         6.02039933257103    1.74999059338546   11.77359380719825
H         6.11259918597050    2.19860512624067   10.78745914552878
H         5.82603967928743    0.68613383896238   11.64735500777151
H         6.97218682905904    1.86538045138479   12.28794367189611

