43
CSD_code = VEDBAH | q = 0 | S = 0 | Stoichiometry = C18H22OPRh | MND = 8
Rh        0.66183651953285    1.92368512763831    3.61391917785455
P         0.87855640936213    2.14041386168773    1.29556333452955
O         2.59326990131875    4.11427994342833    4.25157931926351
C        -0.24111086700928    3.20182039918220    2.14180413791559
C         1.86210176719358    3.25441159746164    4.02774279063070
C         2.31236734699309    3.24235542321442    1.03126393962029
C         2.17672527085023    4.49707865188325    0.44598298992801
C         3.28779849156777    5.29392906426695    0.23820629137150
C         4.54635524162189    4.84090924274513    0.59565960558191
C         4.69437108970025    3.58027864778601    1.15221206946120
C         3.58632404131370    2.78245186920700    1.35868363565101
C        -0.01240747789906    0.97730797589729    5.57339414602919
C         1.05071984466535    0.17541070218143    4.98334961410154
C         0.56632902396948   -0.36253195942559    3.76702406916208
C        -0.73280757118153    0.20852465435844    3.53293151897740
C        -1.13026726987824    0.93526153834682    4.70797722840311
C        -0.00127375859102    1.49079698754457    6.98133014362280
C         2.28208767169173   -0.26343358328356    5.72046036699583
C         1.20317421614961   -1.43060837376631    2.93172998915058
C        -1.66397432474825   -0.25407432176624    2.44903710189541
C        -2.51284756274247    1.42445318674619    5.01677079053816
H        -1.30015367149707    2.96581997258901    2.05250981348724
H        -0.04231690884359    4.26933117993665    2.15590636808922
H         1.19640813976178    4.84898372686858    0.15450410040796
H         3.17177913658786    6.27258562236371   -0.20531253126838
H         5.41185744602546    5.46738903764176    0.43710263334258
H         5.67649324575086    3.22267096395697    1.42628072140075
H         3.69190344549085    1.79882342513607    1.80003290990671
H        -0.69365763583142    2.32057072165532    7.10506836096801
H         0.99198273088509    1.82574844547616    7.27233616972699
H        -0.30196070916806    0.69124246335444    7.66194933115718
H         2.69218174326028    0.54370101936467    6.32398524254785
H         3.05321834059886   -0.60217164539215    5.03222759729449
H         2.03143131883552   -1.09128334526975    6.38733760712491
H         2.28260861088076   -1.44572688152418    3.06348783215820
H         0.80956719899498   -2.40547975143963    3.22837034203500
H         0.98633132650254   -1.28464871250737    1.87563634574951
H        -2.50355879236533    0.42726315587840    2.33202883778051
H        -1.14742035446149   -0.32695255186401    1.49336763145089
H        -2.05867157765599   -1.24016532392169    2.70125643325624
H        -3.08395684464950    0.62415726208129    5.49283591070255
H        -3.04141560214052    1.72244244974861    4.11370296815513
H        -2.48937859085603    2.27397813054396    5.69596311382412

