45
CSD_code = VEDGET | q = 0 | S = 0 | Stoichiometry = C18H18N2NiO6 | MND = 4
Ni        3.31572177237395    3.59804948265338    0.03993070585846
O         3.37120073752831    1.76800927351590    0.12878946879486
O        -0.42300289138533    6.32673039389795    2.95498706029804
O         5.54919892415569   -1.04719473050750   -1.78601737579553
O         1.81650630134722    3.52786638039316    1.08921990355024
O         6.92868350265263    0.38347357224275   -2.69560147605040
O         0.56357585410327    8.02005352562561    1.98928365241640
N         3.17667869149003    5.44853185130896   -0.11082427965200
C         4.10153438994389    0.94849150252260   -0.50068663568017
C         1.30522964979811    5.84632243344219    1.33170493440493
N         4.89519646505414    3.64093202820656   -0.94583224543062
C         5.26297261390576    1.29310410563559   -1.24604038990593
C         1.16113256234896    4.46347525755161    1.63346902760269
C         5.98432742288867    0.25537195090072   -1.94765429247109
C         4.48128951222612   -1.37738399449631   -1.05029548582088
C         3.74572113129699   -0.44733701770136   -0.41676670822722
C         0.16404315044015    4.08645067913362    2.60572229721470
C         2.25791902841847    6.26327389171996    0.34134457232212
C         4.21155225752780   -2.84494529971921   -1.02839863822050
H         4.03775190359730   -3.20032926595758   -2.04279163560165
H         3.34694513644523   -3.06532159849347   -0.41132416334086
H         5.08228807521217   -3.37186172215148   -0.64168413257445
C         5.68318468657562    2.66448739688012   -1.31585288712418
C         0.50714519800523    6.81156886797732    2.05404375135447
C         2.18411741352053    7.65733852935513   -0.20703804930688
H         2.29181985818336    7.64247243646354   -1.29007309442645
H         2.97960889658830    8.27025464734218    0.21624163114881
H         1.24409972088410    8.12699613666022    0.05599564647040
C        -1.64924210294873    4.74976005254719    4.22195735908958
H        -1.45669491536093    5.32771350284125    5.12434615144239
H        -1.68495746318621    3.69212638543167    4.46244666979167
H        -2.61493622585946    5.06647591970857    3.82967899047307
C         5.35941469141169    5.01628492668934   -1.08843772843392
H         5.91101173190903    5.15536945136953   -2.02395636964986
H         6.02215231384805    5.26563133990369   -0.24881435592901
C        -0.58383041577244    5.02374939181645    3.21358963551685
C         7.06726622873785    2.98294266827074   -1.79819578172456
H         7.52938102810753    3.72766252861472   -1.15273809558802
H         7.03053689241140    3.37328191709358   -2.81498233235038
H         7.68327419711255    2.09214253260864   -1.82008858852259
C         4.14914233539425    5.94919236350394   -1.07602084463264
H         4.47788146785659    6.96181340011293   -0.82014414736787
H         3.69341444304720    5.96943378542962   -2.07514660205398
H         2.87945904666602   -0.70563120312645    0.16663275643232
H         0.04628478149932    3.03817032278217    2.81732212169914

