69
CSD_code = VEDGOC | q = 0 | S = 0 | Stoichiometry = C28H34Br2N2O2Pt | MND = 4
Br        2.37561275539171    0.03385117592510    8.48390927930174
Br       -1.96571216799506   13.35489891177577    3.95619992527350
C         1.29108338702358    4.46277585866466    7.27756044644972
C         2.56709059893519    4.14188273550291    7.86535432255501
C         2.84551991920775    2.84137249169537    8.19827242178658
H         3.79448709217308    2.57257130838108    8.63061491611182
C         1.91284009343479    1.82073420108156    7.99307922878615
C         0.68646751870406    2.08282732128994    7.46174719610163
H        -0.03090458697654    1.28847464499890    7.31728765354885
C         0.34613538818629    3.40006312347252    7.09148569817090
C        -0.96963895579723    3.57926758962676    6.57528265295033
H        -1.58462863826253    2.68224679272541    6.60021443696132
C        -2.87671540988235    4.80181142090454    5.70912606488073
H        -3.41003400152111    5.24634601781408    6.56409825900332
C        -3.59786074307255    3.51402323302383    5.30998120783248
H        -3.07999459464894    3.05046579841877    4.46737727805067
H        -3.60647437235671    2.80860972832765    6.14189404065918
C        -5.04289100904688    3.83193740603581    4.93002216890337
H        -5.54619408255532    2.91450380802997    4.62207819671691
H        -5.56702518832332    4.22258162911857    5.80492309981044
C        -5.10385051587817    4.85595043461055    3.80361430471975
H        -6.14409729842597    5.08441612298063    3.56784146242305
H        -4.64236585762698    4.43753264343178    2.90653037687279
C        -4.37630819053115    6.14231325195690    4.18961712177445
H        -4.41613009912763    6.82921197661605    3.34331217752065
H        -4.87016511525739    6.61335580264022    5.04244079409968
C        -2.92547544857034    5.82175213376122    4.54956036574435
H        -2.44845937899871    5.35164395650300    3.67518900798790
C        -2.30946864365118    8.16746182154655    4.56784615034733
H        -3.22187325848435    8.38877747434293    4.01836150634700
C        -1.47604844837899    9.30008035331948    4.79696558569628
C        -1.99539554408939   10.54031287381015    4.37273233812329
H        -2.98188099981854   10.58106366244323    3.93490199720509
C        -1.25533071911251   11.67410116016162    4.52048165054762
C         0.02875869585470   11.63301237290563    5.07103254214371
H         0.56857149147336   12.56135061465289    5.15163854625454
C         0.58859906272289   10.45474516104968    5.49302710350891
C        -0.16847863150832    9.23359449125607    5.38240345217123
C         3.57661672729494    5.25636079591009    8.11035124657704
C         4.88029544165550    4.74177431301753    8.73013035018215
H         5.55575700156736    5.58123370486709    8.88021357269316
H         5.37664249096070    4.02867874114841    8.07561151894692
H         4.70457932386895    4.28005805872018    9.69926682800251
C         2.96456718474522    6.27758939628754    9.07969794600501
H         3.67797677403406    7.07412054880499    9.27709126809756
H         2.71069506204277    5.79723160547535   10.02290359046643
H         2.06663521410046    6.71555703944461    8.65679951761415
C         3.92440457861248    5.93787680665588    6.77968614424209
H         4.66144279228881    6.71953975962955    6.94783314546632
H         3.04143898481687    6.38635341228675    6.33663717162502
H         4.33996567099479    5.21324219583519    6.08197352590855
C         1.99787038931646   10.40893050227981    6.07018360534454
C         2.86809320283664    9.50459267232064    5.18570981610020
H         2.47386717008288    8.49405165496304    5.16696458068624
H         3.88304498770437    9.47276220854766    5.57464008784383
H         2.89830529311720    9.88911730070287    4.16781566365871
C         1.95045025551384    9.85556139168673    7.50112794654768
H         1.31865821097426   10.48271685552511    8.12735403741326
H         2.95236502054327    9.84120813422031    7.92360149991819
H         1.55884913916541    8.84379666600351    7.50792551945980
C         2.65607649327956   11.79187326015874    6.12149528954944
H         2.09743729142017   12.47428444528454    6.75835123574346
H         2.75260101082531   12.22344511565737    5.12761924156344
H         3.65598191933292   11.69180683242755    6.53818601923793
N        -1.47851062242977    4.67240854088693    6.11094581709060
N        -2.07847431636987    6.94895091879691    4.92991900688642
O         1.05323594176855    5.68552866214742    6.96503260771180
O         0.36882314917000    8.14246352874633    5.79504811084626
Pt       -0.53905588644325    6.35996342676370    5.94867911124791

