142
CSD_code = VEDGUH | q = 0 | S = 0 | Stoichiometry = C42H89N6Si4Y | MND = 5
Y         3.19809848630561    9.97243650435844    3.54032294898203
Si        6.76189579711642   11.74811603879842    6.93035458376112
Si        7.77341590613737    8.96253091281567    5.82899114995501
Si        1.02376434542191   14.60959500145814    3.04238676805514
Si       -1.16007048582379   12.57609898098768    2.00753147138738
N         5.40412594635768   10.61190542849191    3.95434540544326
N         4.34486188018184    9.61764627802178    5.65217986539919
N         6.62319311379089   10.27690327346670    5.98558238259982
N         2.20899532730600   11.58040501201560    2.00320507731737
N         1.34321172392742   11.29320230263562    4.04218640044929
N         0.40376911608653   13.01092802659247    2.67036183653078
C         6.55208984022330   11.21674312926737    3.31014447583170
H         7.43836023620315   11.13795568437091    3.95073228987697
C         6.81938269335046   10.47672620003378    1.99269086918959
H         7.07178325754609    9.43684431250173    2.21470698048116
H         5.89128071658244   10.47736502696263    1.40797066784620
C         7.94456357814265   11.12969073688650    1.19618634643287
H         8.09146736207705   10.59306316064851    0.25579365946268
H         8.87574269549384   11.06611940770917    1.76510214583420
C         7.62835756958563   12.59519042102965    0.91769129497348
H         8.44899955121936   13.05459986606602    0.36152673481349
H         6.72722713592609   12.66365819593183    0.30523055658960
C         7.40606963077407   13.33917980049810    2.22994084301273
H         8.32849565551720   13.31373945593241    2.81644743206316
H         7.16864710825012   14.38671851922832    2.02934776237232
C         6.27633842236235   12.69948691323498    3.03072259664179
H         5.33601930280862   12.77160103852007    2.47986250008590
H         6.15056923677427   13.22156872344780    3.98010597567713
C         4.29530330370696    9.00253659178252    6.96449059910632
H         5.31341841520806    8.87215369165882    7.35691569135053
C         3.62673255473776    7.62728909104604    6.85558690430919
H         4.20423014014142    6.99899715056385    6.17722566777807
H         2.63093585486322    7.76284984714591    6.42041190698965
C         3.51391265347230    6.95193703349169    8.21893991718473
H         4.51567668573550    6.77828555365341    8.62015269691867
H         3.02584304149894    5.98060715914485    8.10985378044975
C         2.72672404611523    7.82449040267590    9.19084370888450
H         1.70606294784803    7.94893736086592    8.82119338552224
H         2.67208846623598    7.34158683284994   10.16929249008233
C         3.39060496619119    9.19152040226819    9.31684075140898
H         4.38984711444622    9.06709966579246    9.74241216846417
H         2.81661684714038    9.82551873520710    9.99765945596744
C         3.49431189877067    9.86171025834423    7.95070715642160
H         3.96480103816271   10.84060451454073    8.04402771494316
H         2.49300349092113   10.00123488462629    7.53932728307317
C         5.45394436620176   10.16688166242995    5.19884609718964
C         8.35016477714187   12.69889754460040    6.45781429259500
H         8.38816479318719   13.64409435906175    6.99036426285568
H         8.40800224950337   12.91854858571707    5.39672830386027
H         9.23899613211995   12.14005392587247    6.73226773760850
C         5.24701264909081   12.87181745118889    6.62530240780031
H         4.70681658185270   13.07413917888256    7.54595095846380
H         4.55263667676380   12.41204744593749    5.92638450846980
H         5.54317939529501   13.83299554535104    6.21469539141393
C         6.89559932339598   11.35653102864958    8.79544492729351
H         6.14303008133672   10.65317017021501    9.13390070718930
H         6.77846319356282   12.26712198519598    9.37519927698642
H         7.86678965862886   10.94201113238823    9.04168855239964
C         6.94769053150688    7.52846581865580    4.88428394162005
H         6.46595722319184    6.82948039985080    5.56091694085937
H         6.18727298789173    7.90904207248724    4.20660899087913
H         7.67292683253341    6.96893349339349    4.30058220833941
C         9.35777606483367    9.46076704670593    4.87828705128039
H         9.72893057604588   10.43441497438530    5.17967464435263
H         9.20285228636942    9.48404806376352    3.80397173134762
H        10.14438703318639    8.73865067056094    5.07606143040487
C         8.32576753130792    8.37574881669912    7.55809682714339
H         9.00767102094345    9.08598667784205    8.01272623147623
H         7.49623083352887    8.23012893110641    8.24154419752389
H         8.85283316071252    7.43078855291638    7.47466440328069
C         2.19781114616342   12.13308536489984    0.66264960502344
H         1.44647921311138   12.92876257045286    0.58722288487588
C         3.57036642006757   12.71676196465075    0.31352693319247
H         4.31714323888782   11.92801713605112    0.44425238773005
H         3.79932532212693   13.52847303675768    1.00632446835693
C         3.61158481507869   13.23462030618240   -1.12073618680544
H         4.60475577024105   13.63427564529492   -1.34145285775140
H         2.89290915482003   14.05036539509538   -1.23407582429066
C         3.26604872610271   12.12202830347905   -2.10424875485385
H         3.28258969172413   12.50673302441340   -3.12658570692725
H         4.01326257069200   11.32833073025116   -2.03194855360345
C         1.88874172810587   11.55317807723576   -1.78109007299317
H         1.13940809819629   12.33857006640285   -1.90723927306585
H         1.64553285037386   10.74476870184221   -2.47483683691110
C         1.84735558599865   11.03206194019012   -0.34795940936773
H         2.56816248655828   10.21825573182843   -0.23126657746571
H         0.85474951319806   10.63983904884336   -0.11700286612749
C         0.40470407380747   11.56903818163293    5.10891395580150
H        -0.46020338004848   12.12577775831946    4.72176723119208
C        -0.08209741447441   10.23330607689965    5.68435312760570
H         0.79560027693660    9.65904084236627    6.00511619646698
H        -0.57967987543914    9.66357755690703    4.89615431888338
C        -1.03411581644332   10.44735229067851    6.85701974587633
H        -1.92648197235464   10.97072099633774    6.50377577115544
H        -1.35227016251707    9.48193650820055    7.25817080809148
C        -0.36823665315717   11.27246850863942    7.95382878648600
H         0.48069004312982   10.72022337919278    8.36150896236996
H        -1.07468633467271   11.44572220333434    8.76930745600194
C         0.11566500220956   12.60621048657706    7.39341271726536
H        -0.74876236578375   13.18716049281664    7.05987318049706
H         0.61732704764540   13.17842326247665    8.17747569525025
C         1.06716864730137   12.39600502230281    6.21923323631006
H         1.96773402199939   11.87276747763057    6.54921246953344
H         1.37461597122777   13.35902583099435    5.81083522719834
C         1.31555958218826   11.95458653382807    2.89723189522907
C         1.00708243225551   15.73013907411642    1.49406850450951
H         1.58734996698612   15.32317283468393    0.67220552961174
H         1.42508633234404   16.70161560162502    1.73939280664196
H        -0.00442416840019   15.89673897782311    1.13793546726437
C        -0.07220498637978   15.47639664425960    4.34629941459813
H        -0.40517988333202   14.80863303346067    5.13273974146205
H        -0.95490239244528   15.90749677823756    3.88710883866227
H         0.47413601444677   16.28967809460535    4.81422206395387
C         2.81707485020486   14.48535561467801    3.68870613622969
H         3.51472289275518   14.96606040320113    3.00876986101035
H         3.12532416710236   13.44794649258659    3.79939245001105
H         2.92964421767985   14.96926684777428    4.65477062307491
C        -1.35223284906850   13.10090412890468    0.17871939904854
H        -0.80430189643160   12.45159583036923   -0.49628934288916
H        -1.01172046169108   14.11675649514368    0.00798375921244
H        -2.39903243934319   13.05702428292360   -0.10736439398876
C        -2.55002584764262   13.45563419795315    2.97509190168644
H        -2.45490361213681   13.34777374844047    4.05021318497489
H        -2.57361167578462   14.51641335511083    2.75155327786688
H        -3.51222560108724   13.04370973339671    2.68802338550196
C        -1.38207568839371   10.68655189271835    2.12557245617042
H        -1.87414168738509   10.28902520765829    1.24266686822123
H        -1.98438103515462   10.40797673139122    2.98508288361877
H        -0.41850229017784   10.19488553905938    2.22466913923418
C         2.89951698289316    7.87989373336107    2.45926378956489
C         3.07930436766267    6.64189291805901    3.37022509565045
H         2.94317929835581    5.72102078021416    2.78667995443362
H         4.07747795537071    6.60856264631636    3.80675134130498
H         2.34547001027352    6.63038890110158    4.17758959554737
C         3.91084969691281    7.69184330238429    1.29963713943883
H         3.81992922796047    8.48175733223202    0.55130998772484
H         4.93890112683567    7.68306783906792    1.66771005565594
H         3.73290709475783    6.73410888648225    0.79135965049159
C         1.48963377354610    7.73067930071536    1.83519802146374
H         1.28715195097488    8.51646075924114    1.10792893460602
H         0.71263838571320    7.76163450389155    2.60226250574379
H         1.40406417194031    6.76632404237021    1.31568750995406

