67
CSD_code = VEDGAM | q = 0 | S = 0 | Stoichiometry = C25H38P3Rh | MND = 6
Rh        1.59236139258545    4.12593910445909    4.21916065798254
P         3.36448019077688    4.36622541547180    2.83299323066443
P         0.17427530815559    4.17697132102328    5.98143339635654
P         0.80895483335679    2.15222907061815    3.30904618611500
C         2.88529933424209    3.23702830006894    5.48806801756791
C         3.64014082863888    2.65388593921832    6.23836782113385
C         4.51633044717059    1.96526189652306    7.11055644381173
C         4.51646751775856    2.23866988719083    8.48078150873596
C         5.37186161259753    1.56326640374626    9.32802191252107
C         6.24000020245124    0.60530680796699    8.82840996047992
C         6.24597350805043    0.32500177983240    7.47117216989927
C         5.39340877115563    0.99572846441985    6.61742257230227
C         0.28720382770011    5.00869128267140    2.96354637291716
C        -0.54565469893699    5.43627469972029    2.19161994106348
C        -1.52021400278169    5.94676877979610    1.30139905823361
C        -2.05779449190807    5.13748762494123    0.29717646713926
C        -3.01417798496688    5.63477617175038   -0.56542765747938
C        -3.45270807476129    6.94358586236697   -0.44354164620449
C        -2.92645219914569    7.75434226257903    0.54993335037475
C        -1.96951371356990    7.26477133515420    1.41593386405343
C         3.11655974862523    4.95092300852511    1.11272566216509
C         4.50041916557762    2.94358197975079    2.59544072884182
C         4.58334794789033    5.60088080753614    3.41360515698133
C        -1.56174929586073    4.71759494752840    5.74651726721211
C        -0.03153901991920    2.66408417637972    7.00122921561124
C         0.69258610935288    5.33533395226825    7.29919116190611
C         1.44919775391432    0.53761906901964    3.90579553337680
C         0.98136707365900    1.92807995859306    1.49463719814085
C        -1.00032619141179    1.85023166103072    3.39107908532615
H         2.00170796973813    5.49142723998849    4.71717573974418
H         3.83985338000047    2.98793644011505    8.86989988102648
H         5.36445008124808    1.78424332848979   10.38665059483244
H         6.90942355653275    0.07944949844557    9.49382934603501
H         6.92172675722274   -0.42234746751808    7.07789536650546
H         5.39764734835757    0.77486277884179    5.55779806055089
H        -1.71769907609243    4.11408103644796    0.20122599394470
H        -3.42265853648357    4.99900659872325   -1.33929555431746
H        -4.20154435068625    7.33001889094127   -1.12000521384106
H        -3.26713899816569    8.77611663088113    0.64755928269572
H        -1.55653949156090    7.89526562404962    2.19133467650604
H         4.07785138401851    5.12546654768334    0.62958102441794
H         2.54307418719592    4.22419942082199    0.54224415102238
H         2.54602970604888    5.87800543163581    1.15515590799615
H         3.97903704141471    2.09221659084473    2.16319548256762
H         4.87822244878009    2.66010841106969    3.57709321892776
H         5.32822526946652    3.23179268465822    1.94792265076684
H         5.45086307030789    5.62599376827616    2.75348303684457
H         4.10960899072834    6.58116319572444    3.43947096262637
H         4.89107667456893    5.33157772045352    4.42337700284918
H        -1.54354387370641    5.69656336675469    5.26925743741514
H        -2.08791599309097    4.02981919930110    5.08851777288763
H        -2.07440422856860    4.77880144206153    6.70644856743343
H        -0.67714094954033    2.87568175490505    7.85337357255468
H         0.95576497943692    2.36197152705239    7.34914196604450
H        -0.45806199927848    1.85209687052421    6.41622914103047
H         0.02170550943720    5.27049392693285    8.15634460903049
H         1.70831582681184    5.08051956149231    7.59884257248204
H         0.68791690984249    6.34905705178220    6.90121816030224
H         2.52718175070518    0.50826417983217    3.75486189854721
H         1.26124274991905    0.45409655098814    4.97510351904359
H         0.97708780021320   -0.29125221745422    3.37868106294954
H         2.02981888924609    1.89847097758998    1.20576874309217
H         0.50420117264451    2.77891820903787    1.00933828417065
H         0.49504364451459    1.00393004068223    1.18121983033055
H        -1.25391175986140    0.93095788599759    2.86260152697635
H        -1.49932155766750    2.69672425667618    2.91976927982830
H        -1.33350218399586    1.77465907512059    4.42389580691700

