48
CSD_code = VEDNAT | q = 0 | S = 0 | Stoichiometry = C24H20N2SW | MND = 12
W         6.21661269764770   16.20653561640622   -0.31043610029336
C         5.49201192619765   17.95985042297946    0.76409286898989
C         5.05287634583465   15.96998743964903    1.49479489014545
C         5.76240565109900   15.44178182118642   -2.35448836790219
C         4.82800349622442   14.81495742352288   -1.46864610817387
C         3.96968607190679   15.83672570549953   -0.97871327909443
C         4.34918017131661   17.07186438891834   -1.57647840271317
C         5.45619938713139   16.83964124845161   -2.41179945374308
C         8.28653414780990   15.49986201788862   -0.73215710263858
C         8.42211011957074   16.90084472844446   -0.46598399453785
C         8.10642355151965   17.11271037827354    0.88881076163046
C         7.75497655609452   15.86181460244419    1.46978901269994
C         7.87976741714643   14.85210645236518    0.47854818834212
C         4.69705873775453   13.68921618574337    2.00002150612744
C         3.68892799863791   12.98545851685972    1.33862985677288
C         3.76216452499246   11.61225813018112    1.21727184101216
C         4.83006790530761   10.91425011232231    1.75721481328253
C         5.82154917111947   11.60416025050962    2.43469781156043
C         5.75889791319023   12.97785531952429    2.56104402776863
C         4.13964847639953   17.85673684183862    2.87131099886261
C         3.33554159605941   18.97846109679195    2.70513517329364
C         2.65728176964294   19.50225965912677    3.79023384874203
C         2.76715308377941   18.91008168224958    5.03670085440018
C         3.55897587914570   17.78502027310460    5.19691085004161
C         4.24755804105417   17.25668421214438    4.12138724718024
N         4.84864614153456   17.31519769809092    1.77489574314504
N         4.57835688808595   15.04653872625612    2.19652471516025
S         5.65605747772939   19.55964057857371    0.54482305069819
H         6.40763287220363   14.91753895728842   -3.05092242102053
H         4.68020931767988   13.75293133971650   -1.34055124094245
H         3.06503593929722   15.68298272322949   -0.40228991252787
H         3.81320542967035   18.00726189482704   -1.48109079043398
H         5.90327055951396   17.56115142336654   -3.07849218230290
H         8.67484986356620   14.99317095752191   -1.60888074823615
H         8.82959649455873   17.63964132658381   -1.13902215787836
H         8.21195535576139   18.04657402553161    1.42600373497835
H         7.60512077095250   15.69679258526938    2.53006637788523
H         7.85096549355544   13.78722578676463    0.65518443334076
H         2.85070799293547   13.52806019921328    0.92746489102468
H         2.97805843941150   11.08136732815051    0.69637189254215
H         4.88445919717367    9.84054105181298    1.65826688810702
H         6.65292345543468   11.06715994086580    2.86897465174383
H         6.52743426102731   13.51184325122296    3.10013731056306
H         3.24394407037758   19.43836863833341    1.73413098675006
H         2.03714971665123   20.37621764444910    3.65766598994927
H         2.23541016916494   19.32264130794720    5.88110383493152
H         3.64563919036719   17.31750151494700    6.16661396007235
H         4.86405826676890   16.38042657361228    4.24202925069417

