125
CSD_code = VEDNOJ | q = 0 | S = 0 | Stoichiometry = C51H69N3PTa | MND = 5
Ta        3.70380847703833    7.47752505641318    4.20726471604241
P         3.79174198663501    6.28865428917514    1.86933141831318
N         4.31924531111246    9.35760556340180    4.52734504093021
N         1.67456854507588    7.45292888287746    4.05177235603545
N         4.95054869000893    6.36099927182390    5.32223004221062
C         4.61595510835917   10.13683150569977    5.61625924935755
C         5.87579744234299   10.70124672146214    5.85783261941041
H         6.67202695382448   10.56349397610185    5.14247872814860
C         6.12306460623419   11.43182249856742    7.00825651853335
C         5.10605587088292   11.62059693076224    7.93396031531488
H         5.29857640945324   12.19215728253600    8.83035042964065
C         3.83945816487208   11.09027528339049    7.71397982155487
C         3.60559183642480   10.35934736232715    6.56525604223801
H         2.62320319336119    9.95353482161312    6.37068817081733
C         5.18093988392266    9.01378344531996    3.48539741575525
H         6.23282875061806    8.89105623156901    3.79681828065136
C         5.15079783834984    9.85634278763451    2.20451009215681
C         0.97387447363637    6.77931094002258    5.04492649673274
C         1.25990635147973    7.06720884741768    6.38808035571553
H         1.98914173148725    7.83440070678540    6.61409620363867
C         0.61046816526126    6.41867240432482    7.42502821656994
C        -0.34395395811665    5.45386656139476    7.12676613600984
H        -0.85876750104987    4.94592189773895    7.92968690458322
C        -0.63875292620970    5.13366367852803    5.80794139622914
C         0.01406977643849    5.79536614778724    4.78089037371200
H        -0.21441655985977    5.52511698704373    3.76109363349437
C         0.89176700284387    7.90047453765972    2.91923589279457
H         0.30051726783581    7.08062653231842    2.49243682786824
H         1.60435368199768    8.21788071525003    2.15218820231086
C        -0.07099850154717    9.08757413746553    3.20538012855120
C         4.74531413833122    4.98374989846487    5.46742650913428
C         3.51982427125216    4.50235188202999    5.93566493547071
H         2.74067305259534    5.19928837105642    6.21170559178614
C         3.28558053257881    3.14176201792130    6.08189815603093
C         4.28319442107689    2.24258569844296    5.73727422517278
H         4.10945437141079    1.18125074462751    5.84449779648687
C         5.50706338659756    2.69054401887422    5.25428836326754
C         5.73381617234094    4.05042228938610    5.13580011183829
H         6.68513171317549    4.39075395568720    4.75681882685663
C         6.14235228773931    6.86690501915420    5.97657075089023
H         6.26331342563687    7.91130584802382    5.67949797019923
H         7.03258694787195    6.32092853671712    5.63610491948740
C         6.12244966713131    6.84160493461092    7.52967939890650
C         5.26740185480414    5.23167119048429    1.95219184434710
C         5.26874173300020    3.94157089784375    1.42050564679615
H         4.34921597482290    3.51367917710135    1.04687869409505
C         6.43544163560016    3.20399301587111    1.36202002374784
H         6.41312025093414    2.20115926968832    0.95931717605829
C         7.63137898034880    3.74586084587613    1.80289295382700
H         8.54413142799051    3.16974490115825    1.74914967274133
C         7.64860038516217    5.03878645454375    2.30193414526919
H         8.58000971834353    5.47415545441306    2.63792395815950
C         6.48199271174528    5.77486598163098    2.37406836934718
H         6.50256146231712    6.78112843142603    2.76764235034210
C         2.46302589375651    5.03608729758220    1.98593822873159
C         2.50860686373321    3.94445381088421    2.85003063078024
H         3.37389801566486    3.79554168813436    3.47787464467800
C         0.30950133599093    4.28140871810782    1.19834663032686
H        -0.54405851233854    4.40996864678890    0.54715270852339
C         0.35888942045529    3.20870170362425    2.07307442286142
H        -0.45630756620726    2.49977312708237    2.10756406678661
C         1.46483144334956    3.04060006524404    2.89227144001632
H         1.51663792147421    2.19905513891114    3.56757923696677
C         1.35608186490544    5.18526502944666    1.15174346090567
H         1.33053420162907    6.01160732022143    0.45404105600980
C         7.47782431794291   12.03271265950510    7.24460500965776
H         7.74472641867169   11.98038424948203    8.29817614914228
H         7.47558044421357   13.08290236795752    6.95116510598137
H         8.24030065919568   11.52036005751568    6.66237262233023
C         2.75169050022319   11.28607885850347    8.72860159964811
H         1.77366480999602   11.09664703588704    8.29262616698536
H         2.77116584874956   12.29956967218363    9.12379901495454
H         2.89330801288057   10.59977495788390    9.56452255482167
C         5.76316192515787   11.23652298831455    2.49568870960198
H         5.73778066379340   11.85445065216940    1.59990949316953
H         6.80062317763215   11.14203625633845    2.80929733723791
H         5.20660351532920   11.74250684820190    3.28128236651814
C         5.98163126364129    9.16209598207791    1.12104349044638
H         5.56308209632193    8.18391255021234    0.89080650831749
H         7.01146086056830    9.03078531082135    1.44653503550222
H         5.98588474935135    9.75895203348338    0.21159531436042
C         3.72552005156039   10.05496578689222    1.69218455282088
H         3.72133916752503   10.75586138980835    0.85941619379569
H         3.09374059606569   10.45421503477567    2.48302116988703
H         3.31968391128529    9.10768178807446    1.34301565202382
C         0.94518111316817    6.73950990524407    8.85149156474519
H         1.50005232025912    7.67180260417785    8.92124993720524
H         1.55844319291808    5.94543300266663    9.27904758380094
H         0.04001000451567    6.81949318042195    9.45048865446225
C        -1.66991690407110    4.09301261265007    5.48459792865779
H        -2.63354421305098    4.56922872178439    5.29990979717570
H        -1.79097527445158    3.39384769819736    6.30900157970965
H        -1.39093185339207    3.54275045150289    4.58830467938882
C        -1.42693474079824    8.58345572265647    3.70816099342567
H        -2.09412901842930    9.42471580962493    3.88640623225983
H        -1.31782278080276    8.03106997924662    4.63789744084058
H        -1.89140162224123    7.93007913928680    2.97211248065511
C        -0.28415610962448    9.84105513917238    1.88875354961350
H        -0.64511637633437    9.16434412719941    1.11695929822361
H         0.64498854025982   10.28973003705899    1.54621106765512
H        -1.01993808558083   10.63157253488640    2.01992120993315
C         0.52771579787517   10.03228000060401    4.24832976207189
H        -0.04574071358560   10.95619458074047    4.29027669981037
H         1.56137450303175   10.27344112604557    4.00755411548367
H         0.49951838699661    9.56989614803170    5.23216969336596
C         1.96894055464432    2.67187949155825    6.62265549730038
H         1.14893756167032    3.16289112344282    6.10270510681427
H         1.88656187262401    2.92423887545596    7.67996783883554
H         1.86644245713110    1.59425196817391    6.51920408744253
C         6.58586464201584    1.71727801705903    4.88527626100958
H         7.25456078517438    1.56273528367569    5.73298206968300
H         7.17413065774150    2.09730735670514    4.05323467527048
H         6.16182447073345    0.75471604022267    4.60941096756883
C         7.20123805452480    7.81607013141995    8.01450970772685
H         6.96414098958730    8.83264359521413    7.70845850329582
H         8.17349133902246    7.54700549064342    7.60631222277874
H         7.26939620261564    7.79392947832179    9.09984588715504
C         6.43497942724977    5.44600908620346    8.07592125106628
H         6.50059034821214    5.48059890111742    9.16193736238517
H         7.38551276071217    5.08408040102379    7.68893738555938
H         5.66150645547128    4.73283031467468    7.80463066951812
C         4.76054443048192    7.30147826372405    8.04873374725230
H         3.98654525181590    6.59151918767580    7.76811104191938
H         4.51174708015744    8.28116270740162    7.64460614262177
H         4.78078602370730    7.37302790014334    9.13460031716926

