51
CSD_code = VEDPAX | q = 0 | S = 0 | Stoichiometry = C24H23BrN2Ni | MND = 4
Br       20.31320368600306    7.77751808567251    6.20206865222847
C        21.17826795266888   11.04208411565386    8.37992744507034
C        22.02998071604265   10.91155185970352    9.48483137734684
C        22.14033227905507   11.96400507894521   10.39192319868662
H        22.79643599242113   11.88216989475209   11.24698700132130
C        21.39058406482415   13.11533063895759   10.19331255949665
H        21.47882397747459   13.92879330056770   10.89851849363890
C        20.51824677530037   13.24189108319588    9.12088143778690
H        19.92990457744189   14.14059863399060    9.00053437154775
C        20.40054457991418   12.19488317824431    8.20844384329881
C        22.65599155639833    9.61626790065126    9.46509518731203
H        23.38347220369398    9.28563573795738   10.20460697147048
C        19.56523319728675   12.04858066509752    7.04621663073099
H        18.88815390606626   12.82218692937677    6.68768180323738
C        22.85928500412937    7.57018913677035    8.34570187648750
C        23.78889247596052    7.35304065438047    7.32447974786883
C        24.33459629816584    6.08781549749089    7.18154958399341
H        25.05227672958806    5.90835199853723    6.39495028394693
C        23.95664365401571    5.05941935187706    8.02549538390294
H        24.38553881972290    4.07640998924504    7.90276269860669
C        23.01037937170692    5.28020254517438    9.00998619355398
H        22.69383156337342    4.46686564793032    9.64612446340162
C        22.44420531064813    6.53324001530371    9.18538108120870
C        21.36959016955086    6.77137651106781   10.20297797222872
H        21.73756020004359    7.36077870345031   11.04365180948152
H        20.99403234558796    5.82642471795896   10.58582554179054
H        20.54148721835957    7.31641389726231    9.74684934000758
C        24.15476281314541    8.48398467923648    6.41491387789917
H        24.63863636352220    8.11708865256509    5.51417787582808
H        24.82389440966145    9.18729958380121    6.91301287702283
H        23.24774295842808    9.03497570847639    6.13059291712686
C        18.92274074855566   10.66274461050304    5.27295432653937
C        19.57565244748532   10.66152928551497    4.03697310492673
C        18.83430232182052   10.40584315783182    2.89498678005656
H        19.32861235551533   10.40087377362697    1.93496140948628
C        17.47873444252537   10.14529979374989    2.98007873733090
H        16.91139290366223    9.94411020954430    2.08399052455307
C        16.85259791631711   10.11540805454991    4.21315560497497
H        15.80073516104263    9.87940949353073    4.27857090650820
C        17.56057714803080   10.36906772025144    5.37752847084764
C        21.04859113135236   10.92247716661370    3.98684811399059
H        21.54731384070860   10.36796087866836    4.79336488131448
H        21.26466151641287   11.98181125887515    4.13382028050642
H        21.46659047902644   10.60785692052280    3.03481847975602
C        16.91152250027735   10.27415528865534    6.72536338188011
H        17.53358336005539    9.67739573387833    7.39463869409440
H        15.93655732289766    9.80150180397056    6.64427942217950
H        16.78000551577792   11.25817063525808    7.17696242883579
N        22.30330734182622    8.85829183331719    8.48244400309590
N        19.68211896769046   10.91970818642087    6.43255531620484
Ni       20.92587140881302    9.61830980142126    7.27024263539184

