69
CSD_code = VEDQUS | q = 0 | S = 0 | Stoichiometry = C24H42BOY | MND = 13
Y         1.10289590003160    4.09861599794814    0.42951997992821
O         2.69059695899897    5.37187364973958   -1.10542761456228
B        -1.29227291017314    6.32004503889002   -0.62848054765299
H        -2.27883039366473    5.95003972377666   -0.11281181577963
H        -0.16177401477837    5.16448328367625    0.01002291602857
H        -1.18935438257409    6.12132745289427   -1.78269330038897
H        -0.82645358479518    7.32193250527625   -0.22734955412197
C        -0.16241589794372    2.39621290709110   -1.31089428722957
C        -0.12780036679328    1.83125482845237   -0.01202005099756
C         1.23693278869010    1.54581837345844    0.30735796380212
C         2.03569818907269    1.94908579589827   -0.81423210069230
C         1.16385567201144    2.47147883275254   -1.80405025818845
C        -1.40898833233845    2.75058261172597   -2.06829016780902
H        -1.91433084618829    1.84485407214476   -2.41250582888577
H        -1.17450272555036    3.35864128551278   -2.93888726402350
H        -2.10895664971765    3.30723955921383   -1.44469663916014
C        -1.33790986752020    1.42845988946090    0.78715503204646
H        -1.74583439576566    0.48834936467840    0.40762953641147
H        -2.12464758566174    2.18147503338033    0.71654080801798
H        -1.09218461817285    1.28243841727755    1.83898511504731
C         1.69096203927916    0.54759851623155    1.34063968814107
H         1.67592131760569   -0.45560478123696    0.90438005082218
H         1.03377146083904    0.53515056456136    2.20772651760335
H         2.70976430730591    0.73981027013240    1.67472513192689
C         3.47386376754209    1.53350422792601   -0.99210780182460
H         3.56548087851037    0.45690715528552   -0.83399491562157
H         4.14712517962070    2.02750725873803   -0.28841972158784
H         3.82019126962143    1.74253765319008   -2.00269651484443
C         1.52003688545979    2.92173448040173   -3.19433941649859
H         0.99058949995294    2.31392115507421   -3.92982470533215
H         2.58633102509620    2.81804263970569   -3.38547178965105
H         1.24071194026099    3.96433547724632   -3.36297816236754
C         1.92247955247936    6.53312384276796    2.33391950915735
C         1.05639124892230    5.54085666119996    2.79382773112667
C         1.73736867035610    4.26789345488882    2.72780384688511
C         3.07283815375265    4.55341813124111    2.23444653261039
C         3.16546767793489    5.93532729553792    2.00724174014240
C         1.58575659263399    7.99022665110970    2.24102699919011
H         1.36881633970970    8.39642607790980    3.23002100608152
H         0.70121327335945    8.14518762878426    1.62054963559490
H         2.41187806352702    8.55685249334867    1.81770724865470
C        -0.31290835050886    5.76991204303125    3.36780827054308
H        -0.23490307960374    6.15739714520120    4.38706496315720
H        -0.88988874992297    4.84510123170564    3.40118992071435
H        -0.86496299139259    6.50034493172596    2.77592378534320
C         1.40119453314219    3.13121212451932    3.67372487097249
H         1.51719521460532    3.47975980170312    4.70393459994302
H         2.07183782028288    2.28647675776297    3.53735181479667
H         0.37140028565304    2.78390168452636    3.56087877089300
C         4.23417016889582    3.59377816367535    2.26934663968214
H         4.79360450772240    3.71522842926023    3.20065788682917
H         4.92691227770996    3.77015147883711    1.44524361107469
H         3.90028206299620    2.55884570164500    2.21644884145670
C         4.39998485925318    6.69196558046607    1.61586507915044
H         4.73513120483037    7.31115865343479    2.45010004451553
H         4.22155197960987    7.35510527446973    0.76831202007389
H         5.21201137679845    6.01375709373411    1.36275973920937
C         3.99456222086034    5.11649495383934   -1.63992781550249
H         4.06912701966315    4.05002437072351   -1.85131097511540
H         4.75491794724024    5.39606817284665   -0.89916336960946
C         4.10863121105414    5.99603024020375   -2.87783816655673
H         3.56946049944189    5.54565391829959   -3.71164768974219
H         5.14044982558110    6.17127409635213   -3.17198208633635
C         3.39638244285193    7.25851212400828   -2.40028731036605
H         3.00615382764255    7.86147174591014   -3.21621548560211
H         4.07752627806626    7.87120489040029   -1.80873837069532
C         2.27782680324112    6.69240762171072   -1.52337067786862
H         2.08886537604170    7.30217126369588   -0.63498831042854
H         1.34140134732913    6.58942502904460   -2.08229513254746

