95
CSD_code = VEDREB | q = 0 | S = 0 | Stoichiometry = C36H50O6P2Ru | MND = 9
Ru        4.63234681145392    1.06077348130743   13.80261411308035
P         6.12214030863194    2.96456775232538   13.85498471457247
P         7.01642730985509    1.31890748173046   14.82649012755845
O         5.71385647672131   -1.72079078067708   13.59075033610318
O         4.71113382168215    0.05345039218459   11.15740996705792
O         8.65360705250365    3.48989336560326   10.87535414767590
O         7.82017179956529    4.71896586685066   12.56603088634532
O         6.44228384235175    2.20237599609036    9.10422464910257
O         7.76369676278646    0.56329618915000    9.89337819097317
C         5.30149524872227   -0.65940333151890   13.75273769825909
C         5.29762880541161    0.81102653427743   11.89247110580483
C         6.39916622197216    1.68208947386313   11.42646019258381
C         6.85453050303156    2.66621111198288   12.22417600473281
C         7.87497380590517    3.63197059611792   11.78045346175298
C         8.75171905416950    5.75138157734827   12.28233180528862
C         6.86831334792933    1.53393651174884   10.00800082314005
C         8.28675190941792    0.35421566664293    8.58794718994296
C         6.68835628210677    1.78657479835233   16.57640834858027
C         6.12310818880838    0.85281408165371   17.47615976241933
C         5.38920607422277    1.34234987261495   18.54801724295276
C         5.27266305742986    2.69883600046385   18.82415169678103
C         6.10942447149272    3.54225715450416   18.11242509080079
C         6.87290416709262    3.11108120004003   17.03246313055795
C         6.36285446265224   -0.65904599945893   17.44346117660039
C         5.08891217731461   -1.40100936881360   17.02820008126485
C         7.51507516190358   -1.07525784273275   16.52643463001175
C         6.77293947140894   -1.11299836739811   18.85928088341621
C         4.40058237712624    3.18131351120166   19.97260215485207
C         5.06706949667297    2.75207203445474   21.28801392592061
C         2.99859249769510    2.56302588981859   19.88551301792724
C         4.23874792602520    4.70498735447817   19.97877940924169
C         8.00127333595140    4.05521391321956   16.60279088515327
C         8.99992905859182    3.45398645812247   15.61161131442834
C         8.81447150567930    4.35121349364180   17.88194963496468
C         7.46816657695554    5.37543521037934   16.03618586288380
C         3.11448754336524    2.69236598683935   13.46065262375759
C         2.58688586171856    1.50349082859993   12.88788680159908
C         2.45026581607174    0.53672800316666   13.93479287128340
C         2.75705818534088    1.18422173973955   15.18946968855944
C         3.19029882602020    2.49680659809211   14.89197034685050
C         3.17368743767858    4.02536719222642   12.77393414805632
C         2.08073046857120    1.32593119345883   11.49298074558977
C         1.77251410031546   -0.79058403184158   13.76922628530375
C         2.38705374044872    0.68151313590130   16.55227421327639
C         3.40934354634715    3.59427972028361   15.88646057218868
H         8.52830926436489    6.56224797972911   12.97066913227212
H         9.77090856778935    5.38877102931800   12.43166014469274
H         8.64346291428068    6.08201812101916   11.24758947522997
H         8.94858924503327   -0.50465679273727    8.66112228501725
H         7.47618005931806    0.16000162533497    7.88267729787965
H         8.83698182339276    1.23999815020284    8.26478250646108
H         4.89058649690740    0.64094233536276   19.19659942009573
H         6.17759857854524    4.57560086399492   18.40463733256119
H         4.31231368417525   -1.29130203114560   17.78115962493640
H         4.71863067829736   -1.00249777543816   16.08233527694756
H         5.29648052710654   -2.46076621240714   16.89983618026856
H         7.23231133386935   -1.05707549881768   15.47795514088985
H         8.37937072537895   -0.42935210375339   16.67140214511151
H         7.81227021953407   -2.09610837438827   16.75895024572875
H         5.96812981006781   -1.01735433177495   19.58149618160128
H         7.06185141318877   -2.16124739939366   18.83562895688640
H         7.62111771899508   -0.52972183898855   19.21090690091983
H         5.13966419089858    1.66944673674431   21.35301873297260
H         6.07197982806351    3.16391622656895   21.35358286360941
H         4.48951698365279    3.11014153193955   22.13762120220548
H         2.49973463943004    2.87564840569533   18.97069231772615
H         3.03296712516307    1.47738461728127   19.90631619083212
H         2.39707118736487    2.89274527589190   20.73005481017099
H         3.87830571019043    5.06158120034897   19.01610749710472
H         3.51559559677900    4.99071516783794   20.73983048879837
H         5.17651399543911    5.20246023950738   20.21351784924524
H         8.60926923977888    3.43434523089809   14.59848134873721
H         9.90367745553744    4.06123197050044   15.60117951633226
H         9.27821859051362    2.44195765626809   15.90305673792216
H         8.23244284064837    4.88005666128989   18.62993444635590
H         9.16969401791974    3.42173135975332   18.32190543084484
H         9.67722912150126    4.96710026514638   17.63716117533442
H         6.96599683013332    5.20366113859275   15.08635021757310
H         6.76674711939811    5.84759703492712   16.71918420258171
H         8.29466918383129    6.06285965345826   15.86818431994936
H         2.17102759193742    4.45690919438445   12.72899107857831
H         3.81930576228476    4.71836861438603   13.31102759374713
H         3.54961592974502    3.92933421619143   11.75607534268872
H         0.99033743262505    1.27198498004274   11.50830496665588
H         2.38061394166427    2.15543882299478   10.85742823429448
H         2.46134083750748    0.40617556684379   11.05016135670926
H         0.68889496753069   -0.65682018846091   13.80160887301951
H         2.03301952887183   -1.23347773310445   12.80956840436012
H         2.05642800103416   -1.48498225105374   14.55809311705587
H         1.45010791762059    1.15005425465264   16.86328310969321
H         2.24008887576882   -0.39546269291025   16.54797197457796
H         3.15176641228577    0.93005692076585   17.28499071220757
H         2.49558191276757    4.18610202259832   15.98009730690862
H         3.66660739060720    3.18848118808187   16.86134430510196
H         4.21423188426699    4.26112132003670   15.57555406964015

