86
CSD_code = VEDRUU | q = 0 | S = 0 | Stoichiometry = C24H57ClP3Rh | MND = 4
P         1.63578039466188    6.52905779613336    0.63550983813950
H         1.06112029411635    6.80026970174066   -0.61598847029460
P         1.34068169651527    3.16848446367909   -0.45587080544667
H         1.67687054908278    1.80650424112423   -0.36036918578836
P         2.18783314724378    2.48192136142167    2.61598960856156
H         1.64422265052903    1.29362057540964    2.08922178750712
Rh        1.95207476844077    4.37575710273141    1.36214695587736
Cl        2.87485478421867    5.40425791951833    3.20666323587932
C         3.20904909663041    7.55663032795850    0.35664528280389
C         4.32714080864949    6.54091494219525    0.09218009497548
H         4.19517991038501    6.06026795719386   -0.87521139001138
H         4.33592505872723    5.77535648660707    0.87293083812941
H         5.29790566131574    7.03540059381131    0.09179620091764
C         3.59012140151214    8.38080698051050    1.58474972250363
H         3.59587706510446    7.75562677339241    2.47439353677033
H         2.90652376936596    9.21258922536454    1.73426771230240
H         4.59000439499193    8.79430054035409    1.45131062775446
C         3.07526228351074    8.46947081958655   -0.86311457704331
H         4.02273702014111    8.97940210438989   -1.03766496005448
H         2.30901422348149    9.22579976350722   -0.71885499390915
H         2.83061499941976    7.89914875433378   -1.75828805921613
C         0.31323051960117    7.55490607296024    1.52802183989545
C         0.03178152198236    8.87622055377311    0.81495040481101
H        -0.14130752306286    8.72221872835379   -0.24951130718046
H         0.84939700733268    9.58120702186945    0.94019416362949
H        -0.86326727062572    9.33103616650483    1.23981368079130
C        -0.93001532615997    6.66440672113339    1.43142029544252
H        -1.77656016739838    7.13273238544138    1.93194805783923
H        -0.73443109736834    5.70668589627615    1.91652537167083
H        -1.20506951111643    6.48588817788699    0.39267658431971
C         0.59287430399327    7.81233095822223    3.00574899225452
H        -0.30864087754518    8.19641141883220    3.48361813897222
H         1.38509473838254    8.53956141160151    3.14993300554015
H         0.88228912773343    6.89482506205640    3.51044878046284
C         2.22500767892799    3.38939134880284   -2.11610574978679
C         2.03686043206637    4.80328767600303   -2.65491566166283
H         2.29453070625441    5.52611364830157   -1.88363971076791
H         1.01173896030184    4.98316644274408   -2.96707511001712
H         2.68644732277575    4.96710656451567   -3.51507431600059
C         1.83865120080589    2.36852690563190   -3.18190982301780
H         2.56916080770016    2.40023393893953   -3.99053435836736
H         0.86489896839680    2.58886738070491   -3.61098211581042
H         1.83125331364580    1.35961579069409   -2.77430872497346
C         3.70076180988000    3.19027430003979   -1.75976018971461
H         4.34042707296224    3.47526781212065   -2.59426932529125
H         3.89925263859382    2.14812653653055   -1.51683897847906
H         3.96287208071092    3.80648360321109   -0.89823904970167
C        -0.49972418499504    2.83077779551535   -0.75488074710703
C        -1.13778730963707    3.99160336747915   -1.51201110288298
H        -0.91891311104882    3.93562957260575   -2.57595796059153
H        -0.75970206717669    4.93752909242599   -1.12534116375468
H        -2.22067695238627    3.97673502259874   -1.39119329642745
C        -0.81133084053005    1.49878438967021   -1.43440690203828
H        -1.87618078008155    1.28796235355802   -1.33389308899802
H        -0.26259114874812    0.68533238461817   -0.96234529500754
H        -0.57667869787494    1.50694882180867   -2.49303242414626
C        -1.06896242661803    2.77705215178336    0.66396275271122
H        -2.15270614672094    2.66552869410690    0.64900944731848
H        -0.81647349322273    3.69522505826352    1.19518199603286
H        -0.63958528473055    1.93244588361338    1.20387222095402
C         1.23340763950105    2.42162377554355    4.25567539716261
C         0.05309323091312    3.38522152897185    4.08923061530197
H        -0.66997329309619    2.99162037887398    3.37849439578307
H         0.40628100396014    4.35686441564330    3.73959242894176
H        -0.45331946239518    3.53141428327655    5.04262486257830
C         0.67919297258221    1.02201703861252    4.52462172266624
H         0.05644413076179    1.04768810230425    5.41880064384521
H         1.46851085520957    0.29439065757584    4.68718631056820
H         0.06129484345634    0.68173694785984    3.69450924778809
C         2.07822829383453    2.89083646327537    5.43819243527965
H         1.44293759183455    3.01323429860022    6.31555068104321
H         2.53974855984170    3.85001424662811    5.21569089662361
H         2.85233617894128    2.16990722133546    5.68850106390167
C         3.91175987392409    1.73992978582409    2.82191069367358
C         4.37958869822331    1.56654841394722    1.37439572922994
H         5.38978803136608    1.16038492117618    1.34182120705959
H         4.38149532564032    2.53657877744223    0.87738382423299
H         3.71927215183318    0.89231754820245    0.82855088289962
C         3.91006237974372    0.37734821217103    3.50967798277912
H         3.18775656157001   -0.29372201527967    3.04664557305326
H         3.68713995427092    0.46097328595307    4.56995656431090
H         4.89826093449770   -0.07367646989895    3.41568016709710
C         4.88068602118751    2.69110149347076    3.51882892886000
H         5.90003479075828    2.31887595749209    3.41531938515997
H         4.66277873366283    2.79133755765993    4.57735370557489
H         4.83047402498636    3.68019763115585    3.06876232333232

