73
CSD_code = VEDSED | q = 0 | S = 0 | Stoichiometry = C20H32LaN7O13 | MND = 10
La        2.16245872297000    7.16788841223499   11.97220744162694
N         2.27941397398457   11.09665029478979   10.27013322531191
N         5.88876984650943    8.62127063256629    9.64671108845704
N        -1.02387405021679    4.48103898465305   12.65904656743004
N        -2.02962424534569    8.54597515040800   13.50773933355133
O         2.30522542785287    9.62408765576589   11.95696210570342
O         4.02066206190960    7.77459719098692   10.54180798908034
O         0.96015857387789    5.43849282006521   13.05196523516352
O         0.01923831750547    8.14847813027348   12.72941100823142
C         0.84594086472839   11.25219756007919   10.41240802940937
H         0.31521262163835   10.61627851129876    9.70111314551289
H         0.57773226973154   12.29633658034589   10.25335934430426
H         0.56821704177573   10.94325321208932   11.41795593115563
C         2.91319724664399   10.24953681309587   11.08313731761333
C         4.42567840650352   10.10986475379877   10.95701882098912
H         4.79731748042102   10.03941591859822   11.98846398542842
C         4.75639259674959    8.74186749815878   10.34788681498485
C         6.25910171418929    7.32922540221401    9.10196368324370
H         5.62058982004505    6.55137450747723    9.51727056116038
H         7.29443991441278    7.11013733278097    9.36328683688423
H         6.15848324524785    7.33447664170613    8.01464536941027
C         6.76184011390823    9.70336919208870    9.24172800250703
H         6.60549732608826    9.89836326102078    8.17187395884461
H         7.79578657556554    9.36328867159896    9.36203510766795
C         6.54943584895033   10.98025422648651   10.04111684683632
H         7.05211342706378   11.80589867787711    9.53506483252513
H         6.99149433116224   10.87026248218548   11.03245264129042
C         5.06199902168953   11.26980529699140   10.20417627370201
H         4.94131781577516   12.19031650776249   10.78593741246513
C         4.30296870423998   11.41810987924848    8.88740206075456
H         4.77717338303048   12.15406264991994    8.23624567083660
H         4.27215462188195   10.45903649317227    8.36974847862080
C         2.88030302933895   11.86155555019260    9.19778818845637
H         2.87435853596804   12.92246836688982    9.48593514307358
H         2.24941187306834   11.75116602566856    8.30967212380994
C        -0.39840110558263    3.55498817015280   11.73645738549747
H        -1.09101740487487    3.33214736616522   10.92712126444471
H        -0.11867653725271    2.62909005073322   12.24390845177949
H         0.49192139107801    4.02876260372485   11.32268052678217
C        -0.25637827659781    5.40852102619384   13.23829151028720
C        -0.90432124347821    6.44496255453006   14.15997333669536
H        -0.18042292988094    6.59713744925382   14.97086688654595
C        -0.93615424140251    7.78059167121027   13.41249124493002
C        -2.07574674686604    9.75380545235794   12.70376822217984
H        -1.51749301486473   10.55985950897378   13.18382222811299
H        -3.11309476547895   10.05477401862807   12.57541351707416
H        -1.63550698780609    9.54804900006907   11.72719025565460
C        -3.14975930450994    8.34298410012276   14.40177971618237
H        -4.04608780617625    8.13433161898860   13.80387287927027
H        -3.32519162484619    9.27899119895614   14.94426948924188
C        -2.90664055387279    7.21417539597003   15.39305134125198
H        -3.85419529621632    6.93239866250581   15.85409760358416
H        -2.23268486392955    7.55326045275353   16.18132333193898
C        -2.27055436278583    6.02144964082767   14.68597984265050
H        -2.14166953310835    5.20695656001590   15.40703897057857
C        -3.09026966872656    5.50612102509265   13.50511995374588
H        -3.12211136806714    6.25813520496081   12.71711653672838
H        -4.11045285592382    5.26944313888725   13.81125610831223
C        -2.42266245601730    4.25661155047118   12.95184355397867
H        -2.91887542413404    3.94901007676693   12.02683743822410
H        -2.51115460020004    3.43011438469717   13.67165580641019
N         3.65516895060450    5.31040544513879   11.09236457674852
N         0.20120857001253    7.70822078382133   10.25977533586836
N         3.20121938878905    8.38051313269981   14.08563549306396
O         3.72844671440694    5.55703337747415   12.29499847836861
O         2.56324407681343    5.46240656711565   10.53474025956954
O         4.60562246541176    4.90125717858314   10.47958280102423
O         0.02266314627649    6.59651229621003   10.74028373771793
O         1.35072191749403    8.09700858618901   10.03968078739571
O        -0.73852417012933    8.41611569274224    9.97296847554466
O         4.01510443893027    8.09875179005214   13.20560648571908
O         2.18217075713871    7.68863967035055   14.19315743073126
O         3.40396886692049    9.29396231210438   14.84180816011469

