114
CSD_code = VEDSEE | q = 0 | S = 0 | Stoichiometry = C44H62LaN3O2Si2 | MND = 5
La        8.64100412168541   -0.46324467427439    2.74030274874536
Si        7.54116939291868   -3.71520121602478    1.88773079001615
Si        9.89719725716656   -3.60572167599094    3.77837632511365
N        10.54966344066645    1.09530418911547    2.44089978296621
N         6.67442629665810    1.03581817099062    2.94394636385803
N         8.70133273224067   -2.83474671365881    2.80748739160004
O         9.01165851592289    0.29746853151058    4.71492727030412
O         8.24796393390999    0.16251918470368    0.72178726298841
C         9.79809072449359    1.08221555124352    5.35606895540305
C         9.58130278551935    1.30228044955834    6.74413618744934
H         8.73269719812675    0.80124308510638    7.18638402749574
C        10.39719302286561    2.10626568714822    7.48988175187156
H        10.19958963948824    2.24517438848232    8.54314613948275
C        11.49010960977284    2.75331836326832    6.90193517646278
H        12.13333187665904    3.38142003317366    7.49845758745765
C        11.72403726348973    2.58714677445691    5.56395462002178
H        12.55671827503499    3.09608925334875    5.09684801537544
C        10.90272466925601    1.77553167623800    4.75437689176574
C        11.18165012390052    1.75489409506794    3.35767802966163
H        12.02007700719003    2.39437989055767    3.05237374507191
C        10.88596938702354    1.36632635913792    1.09167025126122
C        11.35644290992536    0.32171528735023    0.27931654348529
C        11.70888707647214    0.59342457335449   -1.03417145830827
H        12.09345815575693   -0.19839114800891   -1.65798384554369
C        11.58179665004933    1.86582538193404   -1.55750695183274
H        11.86631373577413    2.06482289994539   -2.57993712981490
C        11.07601298483732    2.87805821709465   -0.76814582162353
H        10.95869894134626    3.86492266407063   -1.18853809092225
C        10.72139048758742    2.65560308263920    0.55622365659999
C        10.11456121748983    3.79469612334726    1.34569536988751
H         9.78799970480267    3.41958540673865    2.32047173327987
C         8.88072238763015    4.34693354561545    0.62532709347618
H         9.15129325965808    4.82451055294709   -0.31271874462454
H         8.38501885939580    5.08749913044430    1.24936675376595
H         8.17769882696431    3.54599509447961    0.40827700835095
C        11.13585988667734    4.91200360633782    1.57793694465648
H        12.00650961814599    4.54044011815626    2.11360307305689
H        10.69010749094859    5.71207894274070    2.16522926614169
H        11.47265071565734    5.32850250616508    0.63165123389142
C        11.52096823202735   -1.08154764378531    0.82100972372839
H        11.00249421714632   -1.16118958923764    1.79460736673138
C        13.00729839023779   -1.37848871581925    1.04380341680354
H        13.55349665079238   -1.31830015568753    0.10455677823310
H        13.13866817283273   -2.37586089743885    1.45619916780667
H        13.44044683364442   -0.66021484839614    1.73761339791098
C        10.87474065634657   -2.11486050973303   -0.10530962969142
H         9.84629317856774   -1.82469993475290   -0.31488207504082
H        10.86320009524706   -3.08549285139839    0.38274279811020
H        11.41650839653408   -2.20641738928031   -1.04427740283081
C         7.44922509208587    0.89636495391039    0.03756838956968
C         7.67130724178080    1.05288259423486   -1.35837984520359
H         8.53423949228544    0.55044899475562   -1.77019201575194
C         6.84356907497922    1.80079472604780   -2.14797135071767
H         7.04637221933728    1.89270200909258   -3.20539093401053
C         5.73192998928804    2.45098871482336   -1.59977214310508
H         5.07995393974119    3.03510120137867   -2.23051884829118
C         5.49076020357195    2.34424917240492   -0.25707350104718
H         4.64317221929996    2.85620647624114    0.17891308320505
C         6.32379264341833    1.59200759988771    0.59683932571460
C         6.03321590940682    1.63200733527793    1.99059380885125
H         5.17483812958008    2.26197783391661    2.25773561579056
C         6.31867793830511    1.36626783213797    4.27529517418827
C         6.44699231557781    2.68491731337416    4.74555276728345
C         6.07943316546381    2.96454313251090    6.05544855369890
H         6.16948384879832    3.97397532651105    6.42604478063427
C         5.59574958408644    1.98071530075303    6.89322595005125
H         5.30258093626235    2.22343860948292    7.90370429656064
C         5.50157677530585    0.68141990174726    6.43338118245997
H         5.13410362026220   -0.08802714309533    7.09469518674015
C         5.86548665814558    0.35354286939195    5.13579745028077
C         5.74284142210893   -1.08124167187540    4.67094299141165
H         6.20138404470170   -1.18408325910545    3.67110463669539
C         4.26618964966992   -1.47302944063351    4.55968998912840
H         3.77394274190988   -1.39648561188099    5.52678418588680
H         4.17120497494248   -2.49688062674407    4.20619505992045
H         3.74899883169596   -0.81850516119212    3.86051954572658
C         6.50359067157723   -2.02293961526483    5.60902678345505
H         7.53062496510218   -1.67633529464372    5.72086548517534
H         6.52351704486496   -3.02385141692779    5.18724878279852
H         6.03675912222852   -2.06861860552010    6.59076699680105
C         7.02699409789149    3.79906867896607    3.90206691549428
H         7.36959629054915    3.38469186340477    2.94890768464728
C         5.97569162471173    4.87359943961423    3.60934277891049
H         5.11855446395062    4.45057043834775    3.09030830682530
H         6.40151183733724    5.65512972970127    2.98357507348253
H         5.62250540876702    5.32796925348915    4.53193215046298
C         8.24070936517580    4.42217335577011    4.59834401058073
H         7.95216132132930    4.93697818479996    5.51099377898460
H         8.71733921292980    5.14557885439893    3.94022768884099
H         8.96592668528963    3.65390699271379    4.85652051718276
C         8.25135984064025   -5.00036201896426    0.65553802132285
H         9.05134207270537   -4.59144447148525    0.04885192225404
H         7.47946232244729   -5.35746319364564   -0.01934154785272
H         8.64285531312951   -5.86206481779453    1.18557966788420
C         6.51106214164346   -2.48606389080693    0.83274669023424
H         6.13016446339026   -1.64099171127059    1.40943399089599
H         5.65040595301785   -2.99006060823428    0.40251092298880
H         7.09549162579965   -2.09163464458804    0.00712790303766
C         6.26020559720792   -4.72439684958283    2.90617601090813
H         6.74145913015863   -5.26245666201337    3.71414777635805
H         5.76638170807838   -5.45768488586678    2.27600293056486
H         5.48603781363830   -4.09949382207568    3.33880151147262
C         9.23876842000855   -4.81242482121858    5.11475288433442
H         8.45044079809093   -4.37244038797277    5.71515842466597
H        10.03391943742662   -5.11348004702508    5.78991860114388
H         8.84492852503019   -5.71295754593373    4.65570542930763
C        11.19620132526979   -4.65454270714075    2.82689021766105
H        10.71280560686217   -5.33946576788198    2.14068524210415
H        11.78674947110993   -5.24830192909918    3.51791807389000
H        11.88713636228695   -4.04650849002437    2.25292384564037
C        10.89869908036158   -2.26740305343713    4.72335004440465
H        11.23322491940713   -1.44878374777150    4.08342918484372
H        11.78764190769993   -2.70700187217657    5.16646370368619
H        10.31600638442007   -1.84202774917583    5.53483876889500

