45
CSD_code = VEDYUY | q = 0 | S = 0 | Stoichiometry = C19H19FeNO5 | MND = 7
Fe        6.32405091393382    2.33668921362560    0.02406784675843
N         8.08119682523217    7.67097083126274   -0.74624450216681
C         8.73200379675377    6.38995055742022   -0.84507703646261
C         7.82672214471911    5.45582134352119   -1.63614548655300
C         6.45986149658616    5.25967230723174   -0.96595458332917
C         4.55402994358181    6.74323636628139   -0.23489026585414
C         4.01996305299839    7.94729278269969    0.19343090292685
C         4.85905322377462    9.05348109136269    0.31751630970342
C         6.19611174392512    8.93549039283101    0.02214167156171
C         6.74487569268189    7.72222877031896   -0.40519537823622
C         5.90499372421353    6.61202847254703   -0.54170374855941
C         6.58682290479536    4.41690232015655    0.30835245802419
C         5.36567710878463    4.01472304469836    0.95491020138137
C         4.40386650126580    3.48054467114837    0.07623229552621
C         4.88869440723215    3.30598124821241   -1.26396929242541
C         5.52033672748373    4.51425381518315   -1.93657860950833
C         1.81726344911928    7.06436168576432    0.40788954936981
C         2.88315097209994    2.78889252739193    1.75393407011295
C         5.56711920351415    0.73804749916237    0.05330243337038
O         5.13643109411605   -0.32433984541168    0.05026390030886
C         7.38243394482026    1.86104962525336    1.34478907754144
O         2.70241640132170    8.14752363717225    0.52038614265826
O         8.09650203946116    1.53101568305498    2.17935387171153
C         7.47501142915884    2.08473189891785   -1.31769532395385
O         3.16567865991202    3.03978726952422    0.39329422858536
O         8.19842791928905    1.79793346029526   -2.15741486646970
H         8.64310702236840    8.42472389130350   -0.38019938979849
H         8.95800083938685    5.95937919040880    0.14337362125870
H         9.68026174520102    6.52446985374116   -1.37350936409640
H         7.66996247664808    5.89644242061965   -2.62271501526102
H         8.31369990682720    4.48793828391386   -1.75685054257265
H         3.91647660432769    5.87957533667911   -0.33109533233634
H         4.44113159866526    9.98916273897458    0.65212307217144
H         6.84559601895376    9.79350773645840    0.12209852336653
H         7.33710831860276    4.81472842387064    0.98898302729934
H         5.18231414573327    4.17092435439951    2.01076031458724
H         4.20040515517780    2.77351889390891   -1.91867417495581
H         6.08014745322056    4.17404108414381   -2.80902107447701
H         4.73495571818896    5.18301058160493   -2.30140247082652
H         0.84342212917883    7.44496606858539    0.71296522301071
H         2.10162555314996    6.23656480427458    1.06738090264949
H         1.75324546435153    6.69612584679663   -0.62185168366124
H         1.89971137917593    2.32348325191634    1.77573622322619
H         2.85981951320988    3.71348591615033    2.33886028177979
H         3.62591363685506    2.10548065262470    2.18084199261525

