71
CSD_code = VEFGUL | q = 1 | S = 0 | Stoichiometry = C33H34ClIrNSe(1+) | MND = 8
Ir        3.27734216599749    5.31771742556394    3.76863720188310
Se        2.32111651363852    4.87254014863649    1.49340972136536
Cl        3.50285603846397    2.99394600140401    4.10876488763680
N         1.35677912750727    4.96087789977073    4.41551374492241
C         4.61644547281882    6.14560868034872    5.33049686282537
C         0.65284120643155    2.05428101366789    6.75780204478703
H         1.56168686853472    2.23929520884643    6.20486944180056
C         3.09086140425321    3.23660095498746    0.82375037400028
C        -0.31994083484617    3.07965817921123    6.86113356929517
C        -1.94599907715408    7.59181518470239    6.00066807960765
H        -1.79142511014145    8.59443862907634    5.63104901789089
C        -1.54631228791525    2.79114920042114    7.53528575568051
C         4.94543446275361    6.60992541971121    3.08901844650949
C         5.41897845867753    5.82617202517921    4.16939923469546
C        -2.36592391831111    5.02545885938303    7.03010217289798
C         1.13893181054214    4.61908644120777    5.62966647166503
H         2.01939368725203    4.47842991016373    6.25062690902277
C         2.85510586015380    7.96235489256885    5.92326827354302
H         2.38967393676340    7.30455480205416    6.65537616922848
H         2.07706236183366    8.51578244750226    5.40407066540959
H         3.47163961653532    8.67960642073442    6.46676631897432
C         2.29298988812977    2.31723421127485    0.16158302151785
H         1.23801012629407    2.50316703875889    0.01857437241762
C         3.86660595804008    7.45111021372457    3.57977248879809
C        -1.72622540708154    1.50942990197615    8.11532528022503
H        -2.65570335192599    1.30540184770382    8.62522901274281
C        -1.14030273575814    5.33694188523855    6.36301677549373
C         0.26501678485126    5.00880351060218    3.45625387340926
H         0.09276324902804    6.05107397766215    3.16253360184127
H        -0.65404974034214    4.61548620041004    3.90423722538846
C        -0.14121873762471    4.34783492865201    6.27134738430216
C        -3.17283881115405    7.26856247176433    6.61356095463240
H        -3.94024229103539    8.02277965832874    6.68974581674295
C         0.62619293781601    4.18339290134677    2.22863541344616
H        -0.15900311643641    4.25230235206390    1.47472883965075
H         0.80746770993802    3.14142096071840    2.49938384244277
C         3.71627117580078    7.20543395124618    4.97056983855934
C        -2.53994039767646    3.76455833076711    7.59401331758840
H        -3.46902230900780    3.53823259187833    8.09682197030563
C         4.90334959449035    5.65439746871223    6.70857185446106
H         5.79849089935543    6.14805184084130    7.09019184884426
H         5.09210639014385    4.58274490276581    6.70470668677748
H         4.08316929571506    5.86862306007662    7.38900254813218
C         3.23226397687556    8.54331154399979    2.78667051883957
H         2.28220789655686    8.84911689567802    3.21735656669683
H         3.06385898477141    8.22970593628360    1.75766507007456
H         3.89038408871581    9.41306006232949    2.76862879550591
C        -0.95942775323583    6.65891046447241    5.88302878113685
H        -0.01319826398903    6.92850457499406    5.43820532122409
C         0.44303814410842    0.83627428509422    7.33464342462720
H         1.19600896611660    0.06696188395533    7.25771161926253
C         5.54907044501455    6.74969183973356    1.72993254434025
H         6.06362992422126    7.70921798866379    1.66482848205190
H         4.78616106315448    6.72663948007202    0.95008477484844
H         6.27140096622108    5.96336189751698    1.52925124267173
C        -3.37156542392349    6.02173853272203    7.12196571252373
H        -4.29555110235119    5.76810702787153    7.61911867138220
C        -0.75466589387362    0.55996470173296    8.02421995850060
H        -0.89561132702169   -0.41289104916005    8.46904160424697
C         4.44969710727216    3.01748397644254    0.98679998316977
H         5.05415720721076    3.74386328732714    1.51017942886506
C         4.21756292679467    0.91247108983426   -0.13900052928628
H         4.65564233376785   -0.00196332461968   -0.50734682313228
C         5.00961895005424    1.84790356007146    0.50700652895298
H         6.06384112871213    1.66319237254249    0.64486455469578
C         2.86412123513701    1.14892888547114   -0.31292809184423
H         2.24706030119534    0.42334913974340   -0.82028218917819
C         6.59731446158009    4.91336602199013    4.19827520935723
H         7.33143348979686    5.29131818869972    4.90961019228203
H         7.06833225567523    4.83742351780381    3.22244719172261
H         6.30507903607288    3.91470326710163    4.52034012509303

