71
CSD_code = VEFGOF | q = 1 | S = 0 | Stoichiometry = C33H34ClIrNS(1+) | MND = 8
Ir        3.57289502734545    5.20878618889003   15.44570169339725
Cl        3.29936212072193    2.91302046602630   15.02966837223629
S         4.57988211447742    4.69016311902195   17.66553835808815
N         5.47143543466329    4.84712561195717   14.79450897653129
C         6.54255965399209    4.87863158769586   15.77564051579239
H         6.70784582368247    5.91160969289752   16.09955464000298
H         7.47206451165761    4.49164071836462   15.34395660546318
C         3.04485649786967    7.36589674025772   15.68565319310211
C         3.79279864670321    3.20471816691637   18.28294646354357
C         2.23676288444214    6.08770530168255   13.94120678117887
C         5.71275198160182    4.53036905932010   13.57782371850937
H         4.84314569802934    4.39605010507341   12.94055421697576
C         3.16812809005372    7.12964325813706   14.29470461711852
C         2.42810084352271    3.04663662726306   18.10618197242281
H         1.86541226393248    3.79228426340172   17.56772877422703
C         7.20505195589717    3.02644310467721   12.34224022750892
C         1.94895915236519    6.55024758163674   16.18708004701444
C         1.43653151977863    5.78777912189691   15.11326869445064
C         6.23637131124879    1.99393571479815   12.40250795826592
H         5.31229609519658    2.16411430573038   12.93452737327878
C         4.53732335041656    2.26053939978352   18.97085268829710
H         5.59544094601908    2.39775056429483   19.13078756578651
C         8.00336717306817    5.27513560267725   12.91147474417243
C         8.79436841223776    7.52092652772332   13.35422931466768
H         8.62940533644515    8.51183406453052   13.75002524074013
C        10.03439674563669    7.21868739849912   12.75767559092474
H        10.80098023619547    7.97658787774478   12.71911654706959
C         7.00644892781630    4.28027100785327   12.95610706577347
C         7.80810555246567    6.58277734362672   13.42352213998135
H         6.85194716529767    6.83791766325936   13.85488527660316
C         8.65075645161541    1.48821372981014   11.09349634302043
H         9.59300267111757    1.29813642603408   10.60198041125978
C         9.24392053677244    4.98561339697202   12.26234954330135
C         8.44826860471917    2.75845362760149   11.69076303277866
C         9.43650702587501    3.73897088156937   11.67324673808869
H        10.37732993264952    3.52883424733959   11.18554686089216
C         1.91202319211504    5.62296209900870   12.56268044007064
H         1.69419373462157    4.55683546729322   12.55614954619545
H         2.72550736624460    5.82500962274060   11.87024930648201
H         1.02318922035749    6.14643491754582   12.20579420647443
C         0.22782354920552    4.91456181048111   15.09364069283603
H        -0.50570226079671    5.32573806301106   14.40035158192177
H        -0.22888415058031    4.84215765485322   16.07671785867437
H         0.48159691814996    3.91130950360019   14.75425483020044
C         6.46846312675385    0.78701622599252   11.81106246506611
H         5.71934082725170    0.01146711152246   11.85619606829077
C         1.80672379080369    1.91395078596884   18.59919246516801
H         0.74645965843937    1.77980517076017   18.45180718862808
C         1.37208389531329    6.70168355802417   17.55482438229133
H         2.14512222546800    6.66413916639828   18.32059662874445
H         0.63474386082339    5.93308951470981   17.76892460073060
H         0.88083364057572    7.67301688790546   17.62605019915745
C         3.90526832585104    1.12821128504386   19.45575955196736
H         4.48210156746173    0.38451506248769   19.98314834848655
C         4.02980788223071    7.87048192108988   13.33043236742533
H         4.48763634479924    7.20165485662537   12.60355159228060
H         4.81330104422130    8.42432027902630   13.84068361891574
H         3.41544534622062    8.58554740951882   12.78183975278587
C         2.54446219397559    0.95207250009657   19.26949186580756
H         2.05926899467850    0.06597574865354   19.64760725745709
C        10.24707414265657    5.98754772285027   12.21747360639512
H        11.18154237487285    5.75136788861406   11.73150978104842
C         7.68490509536498    0.53001639236048   11.14728331372281
H         7.84425755575388   -0.43504470474980   10.69187742024439
C         3.72438109011201    8.43130131012894   16.47641947801134
H         3.10276570573983    9.32762189032846   16.49218519619903
H         4.68575606058224    8.69680853756820   16.04387763957394
H         3.88034780490541    8.11508590123966   17.50517252883039
C         6.14695177234370    4.02723183863894   16.97496119487025
H         6.91694493461324    4.06996381978594   17.74401147570496
H         5.95808247334762    2.99659228590986   16.67366924687830

