69
CSD_code = VEFGIZ | q = 1 | S = 0 | Stoichiometry = C33H33IrNSe(1+) | MND = 8
Ir        3.82507586412493    0.37982036251356    6.17276507358285
Se        4.18473660591465   -2.10710505987499    6.23607824497748
C         4.54715140626005    2.07616535815067    7.44849246437742
C         2.36555882223526    0.56056410910335    3.59696122012570
H         1.49630760452732    0.31234779110471    2.99061262815573
C         7.65482891060910   -3.60527052658428    4.50259083683127
H         8.50563849993299   -4.17651869098550    4.84017930493079
C         6.44126426262906    0.69815733669887    4.86324412324324
H         6.79299723896420    0.18885005501755    5.75123585382755
C         5.09265006185992    0.82902568106592    4.63773120102397
C         3.05663644206727    0.53120700220590    8.36058734536613
C         5.73577496106697    2.96380131004218    7.27061412421617
H         6.66388811541591    2.42118007163131    7.42589955968116
H         5.68840171242867    3.77345926713907    7.99989535352020
H         5.75706079992834    3.40378762808043    6.27649286766355
N         2.54759747366640   -0.09378299218794    4.69395538927037
C         5.46455203480703   -2.13352778079526    3.63427848720931
H         4.62443610393654   -1.54056188427900    3.30074987503727
C         3.86813566111516    2.95703471120621    1.14992258014586
C         3.47069336502789    3.75217501431920    0.04588579706214
H         4.23814276996938    4.23801173186767   -0.53752456053158
C         7.00299561801691    1.92235380707366    2.88430074369744
H         7.72261324565144    2.37401239449681    2.21898820781547
C         2.30251751187964    1.43317462888203    7.62017449776629
C         1.69928501704247   -1.21705715509093    5.03407592564521
H         0.93120545050019   -1.38063898364227    4.26834044036244
H         1.19816002985709   -1.00773108641233    5.98519326043900
C         4.65015902668244    1.47253955884392    3.45063175542153
C         7.40229886693666    1.21836589652778    3.97853761450124
H         8.45014357244079    1.07963487934848    4.19530551108345
C         5.62594098474437    2.07426296927511    2.59253975257009
C         4.46701921137508    0.88945351926321    8.21581679612986
C         2.15306890324324    3.90952219374766   -0.26202323534790
H         1.85114634498407    4.51823481261678   -1.09979213387975
C         3.28782855007655    1.49365685641546    3.03604162358655
C         1.52290412718756    2.49931519692388    1.59129608563905
H         0.74223428896139    2.06325647924360    2.19569657181703
C         5.55811365075141    0.27777122960922    9.03409757882270
H         5.51065378494638    0.66251704314131   10.05389836246351
H         6.53776612506879    0.51670621898847    8.62800572669803
H         5.45513662330982   -0.80627344995033    9.07907842300682
C         5.54502195057921   -2.56749385598424    4.94826568495172
C         5.21261041915374    2.79045762536742    1.47086307604178
H         5.96226722500410    3.23824958527349    0.83397371354217
C         2.57037821561737   -0.54642302358532    9.27176767350308
H         2.70671650495488   -0.24165617156966   10.30995622179225
H         3.13095823470494   -1.47143691417501    9.12281724169559
H         1.51415740469556   -0.75414391101889    9.11728360801767
C         0.81652565179269    1.54594167902490    7.54470157757835
H         0.32607710272740    0.65244106140064    7.92444405447939
H         0.48294477603728    1.72154358863122    6.52271448246177
H         0.48571053631513    2.39208295571291    8.14817632888636
C         1.17234811195694    3.28236402879013    0.52694987947068
H         0.13007644708505    3.43275786585042    0.28979228569934
C         2.54823735591582   -2.48147683711584    5.17535750759069
H         2.88926333270878   -2.84242064929183    4.20477235306652
H         1.98908235638854   -3.27106753111214    5.67800286271244
C         2.87750145867637    2.29426400606153    1.93588430642020
C         3.22368980592954    2.33806804314159    6.94264357027887
C         2.81047107895955    3.57437352808016    6.21303145810837
H         1.89941443011768    3.41157360388227    5.64190850165174
H         3.59101641776498    3.90500346687204    5.53204744712966
H         2.62183294396568    4.37553574013145    6.92927482239671
C         6.63735445198111   -3.29947613758117    5.39000746429629
H         6.68592570073713   -3.62705307690269    6.41965406483816
C         7.57743139952670   -3.18160336303226    3.18645588341160
H         8.37082370976009   -3.42092480341762    2.49582583185160
C         6.48333035374129   -2.44852912319088    2.75426859419246
H         6.42511297307940   -2.11244888502159    1.73040822598137

