69
CSD_code = VEFGET | q = 0 | S = 0 | Stoichiometry = C26H40N2Zr | MND = 9
Zr        2.76102058463813    3.55236781119133    2.76826380834623
N         2.20657888461547    2.54131024198107    4.63076061034669
N         2.81733393607131    4.66939143109416    4.62799163405902
C         4.78754342775753    3.90579301891109    2.00974115294658
H         4.94146924479862    4.21810288070096    0.96849274325001
H         5.62417376713374    4.26980481512461    2.62271884324974
C         4.57710552437349    2.42128544832999    2.12507800784863
H         4.55393468048522    1.84483405359810    1.18942792815986
C         5.04285729592902    1.69285003180776    3.27141918961908
C         5.40506384112079    2.32328292230239    4.48837992925773
H         5.37782008595136    3.40649702373228    4.56262234520356
C         5.80878091931789    1.58635150773365    5.58076285621664
H         6.08917997435674    2.09697858368823    6.49374631705422
C         5.86979760681457    0.19982711461572    5.53040346913494
H         6.18463789617657   -0.36807494371762    6.39329919264165
C         5.53671477637059   -0.44192942072707    4.34406306661960
H         5.59843023492811   -1.52029423302899    4.28294798248554
C         5.14235267928726    0.28204161337622    3.24322716394639
H         4.90615350310534   -0.23676627709430    2.32077182830679
C         2.69142777845675    3.55161922097682    5.33921959861806
C         3.05635106198436    3.44769799369309    6.80142947971569
H         3.84582601529579    4.15141656323094    7.05378624299928
H         3.40125931085504    2.44296556246363    7.03271309676590
H         2.18784370913799    3.67009749887292    7.42058757823168
C         2.08527147261678    1.18682254611327    5.13571230265151
H         3.02316342444105    0.87016942724235    5.62546848431730
C         1.84973069922549    0.28069937980507    3.92101456087846
H         0.82416407554665    0.38909255499208    3.57304849651725
H         2.02118077440362   -0.76019535183066    4.18575326358459
H         2.53790539213020    0.56284107140063    3.11748116780417
C         0.92670981254581    1.01676263862177    6.12986110994383
H         1.08991062319911    1.59228933795986    7.03612843918366
H         0.82915454231548   -0.03163652008507    6.40173204273545
H        -0.00572030162103    1.34663332673831    5.67584671087159
C         3.38778435280217    5.89608379438822    5.14671907737183
H         4.31526339427399    5.69610706231060    5.71650919356775
C         3.74642727173481    6.76599377142449    3.93641319542780
H         4.38412123538674    6.19830631832845    3.25190757589408
H         4.26693759305747    7.66714988690906    4.25432336071950
H         2.83344251199555    7.05018456247775    3.41428172014262
C         2.41164616812831    6.65446006838175    6.05885365022978
H         1.49718667713309    6.87862908572460    5.51425054577645
H         2.85950649112051    7.58870113263550    6.38952561222525
H         2.15527568306345    6.06539587302100    6.93492642898436
C         0.43332073830131    3.38281433186589    2.02409789591668
C         0.77573516009201    4.76585940354286    2.02656551269319
C         1.74442501260201    4.98469273409382    1.00860864816534
C         1.99698392862079    3.73439232161316    0.38054091579682
C         1.19847821346639    2.74208412338841    1.01132109235310
C        -0.67675570981926    2.80631922328118    2.86109746572690
H        -1.60423235808889    3.35630622384610    2.68171126336273
H        -0.44750751004494    2.87951712198508    3.92795822877721
H        -0.86113971046487    1.76233515757449    2.61275064572196
C         0.08610997322200    5.78657306868438    2.89203021810820
H        -0.98330034962417    5.81463082489379    2.66535673830792
H         0.48410613912845    6.78648735913312    2.72518034110730
H         0.19551034713722    5.53854212647309    3.95177194929723
C         2.30027855387034    6.30498613692273    0.53836302525988
H         3.38398868678878    6.35915645943872    0.67539400273063
H         1.84461824561189    7.13521189286145    1.07468159112939
H         2.08765811281151    6.44359609324746   -0.52351777153589
C         2.79696232385806    3.52149081028386   -0.87530408336463
H         2.13134420252383    3.47653997694524   -1.74193751845149
H         3.35398340719523    2.58475507262435   -0.84141426927296
H         3.49905956691257    4.33693905222715   -1.03729601183069
C         1.08570843226600    1.32138851910572    0.52124803614100
H         2.04987237802027    0.80570097742429    0.55411505818771
H         0.74157488640926    1.30947129698565   -0.51580269554156
H         0.37339869686537    0.75096926202398    1.11386871733660

