74
CSD_code = VEFJUO | q = 0 | S = 0 | Stoichiometry = C24H34BF3N7O3PW | MND = 7
W         5.21801178495406   10.18613767644123    5.26662165929164
P         4.49108077125515    9.24720098295863    3.08119256346900
F         5.31834817054538   13.63278873048553    1.58587375651418
F         7.43099253812543   14.00014631737233    1.63099932676152
F         6.19267636672295   14.66203257224377    3.25537872549536
O        11.15213387795456   12.42801061550201    4.90524381978894
O         9.78494634191759   11.52478372359339    6.44165418057837
O         7.90383200387565    9.02503821700751    4.89450253344633
N         5.57692708038053   10.49747891041012    7.37094293316894
N         4.64640073223682   10.18635175121824    8.27794715964846
N         3.13195581706198   10.66187856006875    5.69712286720551
N         2.59045629690761   10.26981334967002    6.85205362632457
N         4.69619576038725    8.26249950456380    6.10963705033071
N         3.86843591554288    8.17084916220979    7.15228971135876
N         6.86278368959349    9.60086260787975    5.02107739011296
C         7.85801751920648   13.02626146736117    5.13700268449202
C         6.71143693257975   13.04524962299426    5.82244454950503
H         6.63788649261648   13.56721517967767    6.76446294414475
C         5.48591660591959   12.43338380011231    5.33349892602762
C         5.38112714148943   12.02078512420098    3.96946006325994
C         6.58847330712901   12.28919363709811    3.08189660513672
H         6.64272522716114   11.57276543315086    2.25202320937302
C         7.91782353908905   12.26028343308986    3.84469463404533
H         8.14606263913792   11.21595107632644    4.06587665778558
H         8.71641752680297   12.63302964623996    3.20130898073962
C         6.39271407687804   13.64654047068917    2.41002328959835
C         9.16090941801487   13.63564202310471    5.61498551504351
C        10.16910605903493   12.48416312570164    5.59524986487490
C         9.61981754060490   14.75187948722609    4.67030367923800
H         9.84938984986769   14.36596968681904    3.68168311082202
H        10.52042279419553   15.22089347707696    5.05843385055316
H         8.83598515088698   15.50021441207156    4.58323688473742
C         9.08727564520408   14.18757524537603    7.04224429760186
H         8.40153895925468   15.03017939333759    7.08023529536117
H        10.07277965795026   14.53387328386107    7.34805410276211
H         8.75819923765465   13.42253328967996    7.73959396570025
C        10.52892931943190   10.31174391239184    6.46376691441820
H        11.45994875560686   10.43665350990651    5.90890880735236
H         9.91905894678285    9.53101218699381    6.00495581097556
H        10.73432441462065   10.06587954173213    7.50498069456270
C         5.13597275378064   10.38431535906095    9.51387647092305
H         4.54088957288866   10.19447561524948   10.38404753594026
C         6.43180627705467   10.83625108669850    9.39472345102761
H         7.11024352432954   11.09180749056761   10.18217211653108
C         6.66489784935076   10.88196966764414    8.01911644371153
H         7.55316365645257   11.16606908949789    7.48691493561921
C         1.31162032037783   10.66717497343199    6.92101072059157
H         0.70519617036028   10.44632936172483    7.77541299266201
C         1.00986454688767   11.34791388568174    5.76061131967737
H         0.07995250980874   11.80121194942996    5.48618639226651
C         2.19251383598972   11.31454073714927    5.02410849909258
H         2.38529287878728   11.74324824967959    4.05846821941232
C         3.75341292361216    6.88941956631835    7.53191407487219
H         3.13274679158053    6.60742768275202    8.35779329470960
C         4.53914403901022    6.12077579395601    6.69909957858241
H         4.67872877457830    5.05992601541137    6.72397390349053
C         5.11815419394610    7.03744657275591    5.82260538076566
H         5.82385390679272    6.86357281408542    5.03126122710306
C         3.76280335653369   10.20662983838755    1.68817370141268
H         4.42000586886689   11.01997919511290    1.39154232762675
H         2.80339378855134   10.62328084540684    1.98772896150135
H         3.60796775735574    9.54421547048774    0.83683604589788
C         3.20027491262980    7.93688227241205    3.18946804643078
H         2.30408151687077    8.36087067201544    3.64209343306135
H         3.55033213884204    7.11750882326352    3.81343545696459
H         2.95449596641551    7.55688435144409    2.19834034047754
C         5.81490738733590    8.36105556426859    2.17688297825927
H         5.41198784777557    7.82388249276641    1.31856348420764
H         6.31054325391548    7.66462852647660    2.84897594225082
H         6.55566244224945    9.08507975504395    1.84239936542137
B         3.37181323969396    9.43927123166733    7.87167557879046
H         2.70157630456985    9.17118055575948    8.80783619944988
H         4.58550035925632   12.85717364071545    5.78924191436999
H         4.45743542897860   12.30695670580900    3.45994702534621

