79
CSD_code = VEFJIC | q = 0 | S = 0 | Stoichiometry = C25H37BF3N8O3PW | MND = 7
W        15.20410562598737    4.31111769566820   12.98905577658269
P        16.86931963299940    2.51655401574220   13.45716651847023
F        17.81909154214434    6.23062949973210   17.70165224104432
F        17.01820870134981    4.23955162201637   17.69714576078190
F        15.69306731119415    5.91731753720397   17.71287946776279
O        10.46930695894011    6.86287506548938   16.69418940171382
O        17.27748994724136    6.02770763259710   11.78616541531261
O        14.48050923965616    9.17194985663907   17.63676893524972
N        13.63478199955688    2.90410064498067   13.59308815732253
N        12.61200648231397    2.67450339578508   12.76712857218501
N        13.63475552484827    5.47083112791426   12.04497611988305
N        12.55451157384213    4.86166134133592   11.54643239833749
N        14.99053924327278    3.37822107218204   11.05311526750772
N        13.79365701136959    2.99069945063359   10.60833794602343
N        14.08733123815833    7.48128976038931   16.16328734672910
N        16.44085078588743    5.38168821483880   12.33680234861509
C        14.55251008986937    7.01496815007154   14.85590723311643
H        13.86370102312708    7.43671805356734   14.10614040474294
C        15.93553675503482    7.68317275533154   14.70226458068421
H        16.04887132745487    8.01170089457472   13.66630512343168
C        17.14000690820156    6.76443686530228   14.98328861594384
H        17.61221646610150    6.53841609712935   14.02924671381837
H        17.88372869827046    7.29858611272712   15.57157480379072
C        16.87168370938198    5.41417967098419   15.65299514763707
H        17.75235235521240    4.78458718682971   15.45909007268461
C        15.61349902169377    4.71225926962910   15.17108989353797
C        14.51374266886573    5.50911678501623   14.74639863862473
C        14.73846488409548    8.57260542480691   16.61695852034902
C        15.81368298152447    8.94191488686032   15.59863358644756
C        12.90465634066169    6.99176413295552   16.81646664166837
H        12.82363983644778    7.55469620641215   17.75101337833420
H        13.01852380362223    5.92846387886395   17.06055114213942
C        11.63220447290299    7.20859030077213   15.98425392197920
H        11.52743478649922    8.26726597638580   15.73625509611476
H        11.68851037430608    6.63415474514413   15.04549872868357
C        17.07240010562000    9.42745290077855   16.31095676078310
H        16.82800810310674   10.33962022157074   16.84993551025049
H        17.86608962688204    9.64311719274243   15.59860190269305
H        17.42284890925424    8.70850965768410   17.04639017878323
C        15.24153812491100   10.09996609827278   14.76611482728276
H        14.34081688052548    9.79485464313106   14.23720314582414
H        15.97761405264599   10.43704885419179   14.03887489620226
H        14.98754320733865   10.93233385301953   15.41808198445679
C        16.83285245036661    5.48184651531567   17.18068035364642
C        11.76785094714359    1.78509829854808   13.30981382312922
H        10.88261098803351    1.47192641376110   12.79547163562191
C        12.26344397185053    1.42080997621270   14.54344939125908
H        11.84150474851220    0.73176544931054   15.24533510974133
C        13.44137865441354    2.15438083294123   14.67168026382894
H        14.12715043050250    2.16113560207819   15.49770564466032
C        11.76710314186234    5.76287427315881   10.93477303205755
H        10.84613092766083    5.47225449431500   10.47200993161627
C        12.36665732631655    6.99840575846043   11.03614541088588
H        12.00956691989269    7.93389246079607   10.65888909746510
C        13.54994470547786    6.75571332645183   11.73499406157679
H        14.33655638568075    7.44092655232944   11.98561032146586
C        13.90517079019071    2.51080593148964    9.36069530682742
H        13.05106766316580    2.15035918421968    8.82465254760205
C        15.22951599533588    2.59085786772319    8.98438363501498
H        15.66519180131173    2.29528187183466    8.05264818044444
C        15.87151857818220    3.15279109719870   10.08698986449530
H        16.90652195624510    3.41641983898498   10.20641041726759
C        17.18777300441257    1.73740435844712   15.09463182415043
H        18.03023703862494    1.05188561081477   15.00634975063996
H        16.31004000425940    1.17565522893380   15.40793158248595
H        17.41541322466772    2.48210609033236   15.85210805842818
C        18.58370160366080    2.94164192889904   12.96997751392674
H        18.97001605002055    3.69761188257194   13.65090243518921
H        18.57864914105165    3.36601436707300   11.96858845122027
H        19.22661834187969    2.06221506401243   12.99612188349175
C        16.61012967164165    0.96591609877584   12.49694693392290
H        17.36577530808151    0.22581551195153   12.75863641655237
H        16.66034783107903    1.17009307158108   11.42996186863517
H        15.62338330169710    0.56562297234788   12.72924615455824
B        12.51375296785146    3.33521142979129   11.39445512678506
H        11.54484018551146    2.97993173019624   10.81865470957008
H        10.58313694357352    5.98158099097154   17.06751419115596
H        15.37901733745289    3.86358291443197   15.81820678178627
H        13.52377133007452    5.13126625585298   15.02154516534721

