37
CSD_code = VEFMIC | q = 0 | S = 0 | Stoichiometry = C10H17B9Mo | MND = 13
Mo        1.42852882225171   17.06809355958817    4.45568532674310
C         0.32006831396937   17.38231754423849    2.54815338874888
C         1.01624424042893   16.11107332447296    2.54143218861628
C         2.56151963217322   16.49394975810375    2.68446638257144
C         2.57653933887601   17.94141980678904    2.75709052097311
C         1.26159780659969   18.43464044563378    2.60117573578814
C         1.93257639579821   17.13555985710390    6.73723910189397
C         2.13941849183438   18.40246815209832    6.15917958550113
C         0.88001438973604   18.84785853213566    5.65449121321782
C        -0.10049011920651   17.85327693661189    5.95218334374202
C         0.56055088462854   16.79957942175521    6.61072836920154
B         3.27026785366695   15.71554941277164    4.02327962797058
B         1.98297623182410   14.74136582076327    4.68951709542712
B         0.52859683910747   15.03628052478359    3.76903134989974
B         2.09599347659801   15.53713497233483    1.34596120928776
B         3.57541988587409   15.23601516390618    2.30355246740342
B         3.18811405913191   14.02568620058146    3.54413475907291
B         1.46564876406116   13.59882994751276    3.38429101906082
B         0.78365426790318   14.54427466982369    2.04461244358723
B         2.44706314619899   13.91187903357874    1.90289952576443
H         4.21107793959783   16.21333799533313    4.53449281918420
H         1.97590647816669   14.35164559919989    5.80590905368716
H        -0.60819194111191   15.01947241179397    4.08754150562565
H         2.06057117055348   16.07188419211322    0.29854633680564
H         4.62258864309679   15.47386459425982    1.82499508713635
H         3.99200607046155   13.24928403467810    3.91254775352125
H         1.06270822195900   12.52338584294355    3.64079596834859
H        -0.15369484468542   14.29055703147654    1.38195181980511
H         2.73066322376273   13.04525349357129    1.16057843740391
H        -0.73248800618225   17.50951966564116    2.33749415766564
H         3.46898225125112   18.55056166277674    2.72677222915418
H         1.00856650903862   19.48652714091879    2.51908166767830
H         2.66381870277448   16.57021206473700    7.29965225259631
H         3.03720366674563   18.99701728479230    6.23775206217955
H         0.66012450712988   19.86381643241399    5.34198079896477
H        -1.16920286365262   17.96592577926381    5.84799588609168
H         0.08525754964021   15.93778168949986    7.06030750968087

