50
CSD_code = VEFPAX | q = 0 | S = 0 | Stoichiometry = C22H20NO5PW | MND = 6
W         3.77376010686100    3.51930388015861    1.93575250041491
P         3.07903632000780    2.72555571391563    4.15955701626175
N         3.78504096807233    3.40006532546718    5.62613269003625
O         1.19466551810003    2.39825451225410    0.54080702887965
O         2.21648145137872    6.16983365436178    2.56522234406452
O         6.27251524520564    4.84798442457286    3.29798248472666
O         5.59429506613379    1.03113127846549    1.34397884101080
O         4.63000499578339    4.65210076018502   -0.84579661637353
C         2.58284722957897    3.82073684774831    5.45894374953254
C         1.64303493888130    4.72450994163775    6.02763574938789
C         1.84780232739388    5.23908468081626    7.31202043915738
H         2.72185077543418    4.93317267324715    7.86628542038248
C         0.93262334292746    6.12315574463238    7.84668756355361
H         1.08562722637648    6.52106417329847    8.83856123720801
C        -0.17902820817617    6.50681576852271    7.10999483440302
H        -0.88889870226682    7.20223059238316    7.53220459598450
C        -0.38218188779694    6.00491567815193    5.83286973332710
H        -1.24516222749559    6.31204907510674    5.26183299506399
C         0.51940146340624    5.11061733879826    5.29175871083214
H         0.37970110504773    4.71866348396878    4.29331915144169
C         4.87584172632511    1.88408201811630    1.58093994897320
C         2.14073455620016    2.74826719182647    1.07608716461156
C         4.31987635849780    4.22957405521350    0.17043375350327
C         2.76514983107854    5.19686841844659    2.31716284121456
C         5.37569563591903    4.34686590595475    2.80442508047246
C         2.47118200129945    1.01429382643237    4.62358039815568
C         3.56826872645772    0.13821749183216    4.08463890966370
C         3.13457087300608   -0.45643077687155    2.95238476650454
C         1.75206726804253   -0.06383241387736    2.69776769950256
C         1.33555118092198    0.77366110343492    3.67122251080462
C        -0.00101910097718    1.40455425394993    3.86292869517912
H         0.09724200133709    2.33797106480802    4.41745663073333
H        -0.66195581154884    0.74527190105021    4.42849310382830
H        -0.47442543937675    1.61694190483787    2.90658003304246
C         2.16455243595251    0.87967651454150    6.10376052680104
H         1.35093232054266    1.54397490971727    6.39529694562104
H         3.04284588725970    1.12803063899241    6.69761911376280
H         1.87109572043558   -0.14601405876404    6.31992308434381
C         4.89018944512057    0.06038328301047    4.76410172036610
H         4.83670663490681   -0.58777107781231    5.64042572927752
H         5.19281974666381    1.05536435889545    5.09765147548243
H         5.65406249100710   -0.32961294164186    4.09618893174187
C         3.85825333297385   -1.42320691712934    2.07922415212321
H         3.83301298783882   -1.09515081658635    1.04097206978791
H         3.37918828367036   -2.40113154857985    2.13094480493946
H         4.89465371890444   -1.53053573946658    2.38571131010374
C         0.97143796428106   -0.58943514902306    1.54269274666829
H         0.82607185144087   -1.66454823570579    1.64867478207756
H         1.50694398917803   -0.41664824975928    0.61012397952009
H        -0.00316367223636   -0.11402646355250    1.47923662192113

