60
CSD_code = VEFPUU | q = 1 | S = 0 | Stoichiometry = C29H19F4IrN7(1+) | MND = 6
Ir       12.13675774762109    8.11836883448720    8.63915895492267
N        10.50407142973716    9.42755403656557    8.12142834511990
N         9.99870819494955   10.02179749336553    7.09301368567270
N         8.87512055557781   10.55764043653781    7.48082252899788
N         8.60921806177750   10.34066027096174    8.74494238481510
C         9.64506932452503    9.62066196043808    9.14980628562287
C         9.90450578916017    9.07726050384990   10.46515908145127
C         9.08104759509680    9.34815414994372   11.55219257568009
H         8.21832107195986    9.98031258098770   11.41861397010977
C         9.40457631672343    8.79000142033632   12.77753299744185
H         8.78998460708333    8.97786842144708   13.64377578481286
C        10.53187672259040    7.98546686187946   12.86714367917381
H        10.81842441827289    7.53118374148151   13.80140708572762
C        11.29337310548954    7.76639156904926   11.72934448933381
H        12.17359132664826    7.13933857633969   11.75599644623358
C         8.01699066556581   11.30648505695103    6.61980599725332
H         7.16478464183781   11.64833639335689    7.20270914899179
H         8.55871500057740   12.15832932762372    6.20842543680596
H         7.68066833830418   10.67758804666712    5.79524884750099
N        10.99294003631477    8.29661809634279   10.55169827151555
N        11.03177534739393    6.63031467817205    7.80711077198498
C        10.08799411288446    5.94479622326376    8.45049545285357
H         9.92635942830159    6.19691428255431    9.49026989301918
C         9.34186414573321    4.94591770817983    7.85734742076612
H         8.59234391352855    4.41938779801507    8.42480238448444
C         9.59126181251890    4.64023135880435    6.52630013058018
H         9.03426183986957    3.86376519197148    6.02639073416821
C        10.57182981381208    5.34099374904462    5.85144544956703
H        10.78008681839521    5.10738309820864    4.82244138522778
C        11.29258932329071    6.34015621927422    6.50920243342450
C        12.36702654951605    7.13670103387728    5.93043462973332
C        12.99979804140830    8.03785264887226    6.81844706523129
C        14.04779767798884    8.81658684748206    6.35452725668801
H        14.57015693831766    9.50944093068069    6.99551085825875
C        14.45860862374640    8.71420908549219    5.03535381338521
C        13.85179142015610    7.85157666275671    4.14103277761066
H        14.17630071569298    7.78306723592089    3.11597735866417
C        12.81194073783980    7.07354227190222    4.60679290161261
F        15.47100017758422    9.48128832571139    4.61245161037058
F        12.22469189318289    6.24816580368518    3.72270509669788
N        13.38980496129592    9.51857010326208    9.40366487817063
C        13.20975245079191   10.83306751951594    9.28886908475475
H        12.34790359155247   11.15762835169761    8.72221732820837
C        14.07073269992072   11.76527614082432    9.83302437000195
H        13.88074921808981   12.81836557944702    9.70711835495596
C        15.18041594918577   11.30840706440357   10.53031657364064
H        15.88001136364559   12.00257608118251   10.96813242960045
C        15.38387658870101    9.94680124668338   10.64522708475447
H        16.24782005416370    9.58072853735792   11.17104356196598
C        14.47619709674800    9.05647200113650   10.06883678473161
C        14.58635464046396    7.60234908745025   10.07816765607139
C        13.58675268155016    6.91679044267320    9.34617373253069
C        13.63757022508156    5.53229868711895    9.27993463459591
H        12.90854682250814    4.96344918152070    8.72410532246457
C        14.64790637700407    4.83901693680035    9.92637029915132
C        15.62831033228514    5.48253165879035   10.65953734026798
H        16.40697776265656    4.93371839317989   11.16256095563642
C        15.58128838719842    6.86041959641635   10.72096532410266
F        14.66743781415719    3.50252068867192    9.84888836675013
F        16.53236670203225    7.47110376938484   11.44958049613369

