66
CSD_code = VEFPOO | q = 1 | S = 0 | Stoichiometry = C33H25IrN7(1+) | MND = 6
C         2.45806091298183    8.62149758366319   32.67129774863118
C         1.87609190673112    9.18884736222815   33.86611611715417
C         1.78942121959757   10.58612297683571   34.00760122804058
H         2.16425374751658   11.21188236664581   33.21439344626766
C         1.23775745406848   11.09376884498195   35.15023076288821
H         1.16141848785465   12.15899391206575   35.30842637701734
C         0.75050792734730   10.20849433139400   36.13272425561392
C         0.15049944879692   10.65711943643769   37.32598776576823
H         0.07722113656118   11.72054484869175   37.49735770775855
C        -0.33248148593239    9.76205994520172   38.23994598860737
H        -0.79160254838087   10.11026870140270   39.15201048410534
C        -0.24344718846013    8.38234718409895   37.99282336175473
H        -0.64199968145150    7.68695038520006   38.71521543089893
C         0.33732210870659    7.91171690979501   36.84796678484025
H         0.40216461645682    6.85388017806224   36.64886590111522
C         0.86314686481139    8.80622029560728   35.89433465694683
C         4.73194097963600    7.23122979940754   35.07529387408013
H         4.73683613277231    7.62831275630149   34.06931747625951
C         5.78641678965379    7.50468208654777   35.92226869875460
H         6.60596551801091    8.11890046296896   35.58710262583665
C         5.76403181341820    6.96641663774698   37.20290543993534
H         6.57029436740883    7.15723650498823   37.89358653158343
C         4.69364161647508    6.17724535270694   37.56916920972475
H         4.65417176154086    5.74164120660143   38.55342973297869
C         3.65879692828157    5.93644194013323   36.66377431489747
C         2.49284592305482    5.11075487906427   36.93168380011723
C         2.27332201897906    4.43616948648450   38.13344678387109
H         2.98540368916193    4.50665646459431   38.94099039497615
C         1.14063067220547    3.66572443811440   38.29565585782402
H         0.97168442243464    3.14124139625412   39.22332698126223
C         0.22454380739486    3.56079112425566   37.26019060088245
H        -0.65762436338955    2.95034017036473   37.38263204445446
C         0.43566974846314    4.23096573530075   36.06568917975776
H        -0.29773969801234    4.12518967653504   35.27813139429104
C         1.56151292757312    5.02567338666577   35.87273536507636
C        -0.69139920967180    6.36326340207507   33.13053200374272
H        -0.72652570899045    7.24183012387995   33.76163862583323
C        -1.77426679524896    6.02778003564275   32.34243468632158
H        -2.65909018882507    6.64284636228227   32.34730890874255
C        -1.69292724325731    4.88579956651231   31.55493846367425
H        -2.51901816491486    4.59259173274356   30.92620073233471
C        -0.53852644135793    4.13032831083683   31.59753683523239
H        -0.45303427586838    3.23632115119507   31.00284219317342
C         0.52072592458016    4.52066080587235   32.41804542066400
C         1.77636598837081    3.80209183234476   32.56931627948384
C         2.09911831443120    2.63308375752829   31.87929652460903
H         1.40755936409491    2.20658770056720   31.16919372845449
C         3.31229563856089    2.01443415814923   32.10086374904228
H         3.56220862503518    1.11008819539486   31.56787926535401
C         4.20718756339571    2.55402696716008   33.01121246987915
H         5.15400208533973    2.06619058502133   33.18838412464353
C         3.89420849132924    3.71704499844905   33.69890643438247
H         4.60934668254644    4.11045998665009   34.40722632075630
C         2.68480383524084    4.35972641582576   33.49028067886206
C         3.78783367980408    8.48130945545347   29.49086617492188
H         3.05853328359898    9.01972439484463   28.88582285526139
H         4.70471006554661    9.07016402391611   29.53768690561311
H         3.99327915526063    7.50405162106828   29.05999549729700
Ir        2.06565966552068    6.12210523880679   34.25364953630847
N         2.68422002904507    7.29603646997733   32.54481497665191
N         3.18896997305037    7.10999627593002   31.37141940170189
N         3.26925117061878    8.28257741446521   30.80572284855523
N         2.83151177819133    9.25516952000532   31.56793346203275
N         1.44449798902476    8.32452538220090   34.77236965910200
N         3.68771431244219    6.47863366306803   35.42153957246109
N         0.42920443083885    5.64322168478857   33.17051334093861

