51
CSD_code = VEFQIG | q = 0 | S = 0 | Stoichiometry = C8H24As8Cl2O8Os | MND = 6
Os        2.62842223514491   14.52401000939519    2.80510591526079
As        4.05020362515893   13.25734676473999    1.38410931713682
As        6.46397807330922   13.90906990127535    3.23745092329388
As        4.33057243969933   16.16321482304624    3.04897869368850
As        3.55685195544457   16.49721904735685    6.04646652058194
As        1.17782367697245   15.83313153853869    4.15603391474824
As        0.08780748438269   13.23467292520671    5.47812818093479
As        0.89971864493358   12.92548886441667    2.49334189045918
As        3.00183898628076   10.63736392200935    2.69177062049581
Cl        3.43344522625286   13.34193549868289    4.73638212809831
Cl        1.83641939971375   15.68967657619292    0.90031173693725
O         5.78338350024039   13.28693714846129    1.68756329668984
O         6.00585987924146   15.63169561328961    2.96003699103095
O         4.43344939347576   17.04523611643467    4.56838702349567
O         1.90157693480649   16.83069345279841    5.41229033036662
O        -0.01226054091462   15.00608284959785    5.15429793799796
O        -0.27446228459390   12.71929712079141    3.78769382114432
O         1.34676026648118   11.23477094999221    2.29680933016993
O         3.83644737467608   11.51080964246842    1.35202502974267
C         4.18880420056353   13.46647429104794   -0.55554658153346
H         3.21251826265101   13.29077073378242   -1.01186332143047
H         4.91783477074393   12.73819128671604   -0.91916466428914
H         4.51470214698576   14.48213864858602   -0.78922436186952
C         8.26939162045656   14.15127045535389    2.47309682808620
H         8.73111906887476   13.18111003483357    2.29651733891317
H         8.89153330988361   14.72433480426275    3.15865534312673
H         8.17147075505389   14.68684621764529    1.53236934500096
C         4.56811538533558   17.72785819158085    1.89962577672008
H         3.67840509241993   18.35837173326609    1.95662675391733
H         4.71048739529444   17.40375731550768    0.86674823100755
H         5.44593987884676   18.27358880983539    2.25414508608384
C         3.69642335610673   18.26432573245030    6.91838115289567
H         3.05695359116694   18.29721756972408    7.79901629729808
H         3.37837446002812   19.02142949964466    6.20637011474889
H         4.72670437004451   18.45108028550553    7.21696673455935
C        -0.04375723472541   17.21281618589766    3.50057944373310
H        -0.74733971271655   16.77011927623261    2.79258561842992
H         0.52685227768141   17.99472230334585    2.99550314663902
H        -0.57610377799455   17.62380693303910    4.36182560267351
C        -1.80363354320567   13.11876502702106    6.03568342733440
H        -1.93786269931861   13.60962535438528    6.99828289219748
H        -2.10463473461642   12.07583309336068    6.12051859335395
H        -2.41090774009085   13.61533631428695    5.28334120521966
C        -0.41634732229307   12.94762534042793    1.04663465570050
H         0.09847066625036   12.87443913169160    0.08642348340925
H        -0.97923297069926   13.88261861929814    1.07974778794306
H        -1.08356695589589   12.09385311927866    1.18802240752834
C         2.78060315782365    8.98846715842879    1.62673524428458
H         2.08140484068659    8.31710050144113    2.12266911947823
H         3.73981209902092    8.48601909779897    1.51292757861995
H         2.39312971493543    9.26413416963804    0.64941611794776

