45
CSD_code = VEFRAB | q = 0 | S = 0 | Stoichiometry = C16H21N5S2Zn | MND = 5
Zn        7.10038618424753   11.01728045673669    4.40231268176547
S         8.74904163069592    8.49285855988212    7.84258212788124
S         6.82318601063223   11.52551803632807    0.21435710352271
N         9.08151137098784   10.86919544725292    3.44921609314717
N         7.61677500925897   12.96253905750903    3.88684535423000
N         5.35884323800387   12.12599420569594    5.29146378209968
N         7.57161332442211    9.99518024877086    5.86160375472219
N         6.38401647948188   10.49136833548713    2.73139412867555
C         9.28661770023605   11.91747835218689    2.64781592301265
C        10.20191664933662   11.86524552016862    1.59985646036548
H        10.34589227763954   12.70756426155149    0.94362661474948
C        10.91082376558888   10.69307135117580    1.39143984119405
H        11.61477064807698   10.62249435617255    0.57586872673482
C        10.69812580470154    9.61855047160475    2.23908031281873
H        11.23188274348881    8.69071968804305    2.11083436993641
C         9.76579653614757    9.75804860736265    3.25815631856735
H         9.55396235345546    8.95286994692668    3.94750393044873
C         8.46193113040674   13.10246167035177    2.94650488862677
C         8.66199989855665   14.33857152095717    2.13076405650030
H         8.33017942407153   14.14100952067381    1.11194939487742
H         9.71523935209622   14.60978880936072    2.10187469780723
H         8.09195691219239   15.17556396642184    2.52270569420953
C         6.70242009727149   13.97499689412693    4.31872320180575
H         6.00079489609808   14.21666473400409    3.51180298306148
H         7.22607665333114   14.89735203919187    4.59963459447751
C         5.95712573901627   13.43724949514789    5.54003928627805
H         6.68162990104579   13.32082378083992    6.34989211987819
H         5.19461372193857   14.16693890035916    5.85353376634882
C         4.92794446380167   11.55591395302238    6.57487365768456
H         5.80266144678271   11.46273460697192    7.22070153035506
H         4.20665052310692   12.23623556599877    7.05519215889701
C         4.28922594456445   10.18689811904727    6.39189213863551
H         5.01932598616388    9.51647052098721    5.93543216706160
H         4.02166076763669    9.78723287789579    7.37092025795548
C         3.06462649068747   10.29630210737194    5.49451623969296
H         2.30444176002568   10.91748937637125    5.97647947691259
H         2.63207556474492    9.31124819552267    5.31877766047324
C         3.49425874837508   10.92647017155838    4.17747423591353
H         4.18982773087685   10.26110422092602    3.66600903716378
H         2.63430896948399   11.08975759094607    3.52558209859754
C         4.18295844806774   12.26312019119609    4.42298628612315
H         4.49867658999205   12.67254825922897    3.46245846422481
H         3.46859498029184   12.96446959968875    4.88491969738250
C         8.08730482452891    9.34643104334678    6.70207154635581
C         6.56292730843326   10.91877536562087    1.64793113884832

