61
CSD_code = VEFREE | q = 0 | S = 0 | Stoichiometry = C24H26N4O6Ru | MND = 6
C         1.88468880843107    0.41547520489615  -12.51041777376511
C         1.33812193493665    1.61833367327513  -13.28483658683635
C         1.31370900137511   -1.72674595780398  -11.80497552825831
C         0.19270586330343   -2.76697440172128  -11.88116724577448
C        -2.48796115384579   -0.58551465628893  -15.45779334063337
C        -3.72044197067172   -0.51544218802040  -16.09943806215781
H        -3.79190993714821   -0.75334908433803  -17.14811631994564
C        -4.83350763198368   -0.13738992705984  -15.35782706981326
H        -5.79985265043701   -0.07572223592617  -15.83214419493900
C        -4.70486375062681    0.15901806437079  -14.00608028353642
H        -5.55143082381773    0.45073681875543  -13.40662830287853
C        -3.44424546754081    0.07047305808967  -13.42412369248387
C        -3.04834109140269    0.30946761066649  -12.05893320210647
C        -1.19672373037190   -0.93913509374952  -15.99221413340192
C         0.44846378658823   -1.47058443428002  -17.38739015418617
H         0.86533599745415   -0.73685554536578  -18.08155479677599
H         0.59138754448073   -2.47389535792425  -17.79386417057190
C         1.00645223628635   -1.31301283114785  -15.95072186510620
H         1.71668285913214   -0.47672159621349  -15.89472309462192
C         1.69176789159978   -2.56351638376497  -15.36255121569626
H         1.97447540204948   -2.30310633564898  -14.33572111289298
C         0.74561991858879   -3.75980971461085  -15.29726887526410
H         1.24117178794874   -4.58940641617107  -14.79973372341781
H         0.44243156003673   -4.08992597094703  -16.28873283970930
H        -0.14363335367507   -3.50921926457529  -14.72050940851327
C        -3.09583514468329    0.76422583496534   -9.88493690954754
H        -3.47636765985949    0.03976297419089   -9.16090718647393
H        -3.21540703849104    1.77259816588040   -9.48325899633392
C        -1.64375556656827    0.45514396502629  -10.32684168006507
H        -1.26249179811152   -0.44422572273339   -9.82439103723879
C        -0.62815465633295    1.59626956588010  -10.10860852489558
H         0.32393033824115    1.24124657025742  -10.52023801470890
C        -1.01699796330087    2.86484104677439  -10.86341775336051
H        -1.10544517614494    2.65917534100036  -11.92925982673920
H        -0.24329508551304    3.61709808709208  -10.73402477620570
H        -1.95714271617211    3.27757258411884  -10.50324132388040
C         3.12670967957190    0.32493952706360  -11.90025728841266
H         3.80339923546274    1.16187994819416  -11.97094886948073
C         3.45291802974088   -0.83984025932136  -11.21639163448402
H         4.41155635445110   -0.93526387037664  -10.72963405545687
C         2.53423359960602   -1.88122173240349  -11.16533505730841
H         2.73751031889053   -2.80620120468482  -10.64909738816863
C        -0.43635063667451    1.86123765977444   -8.61802385885877
H        -0.14596375118396    0.95049997248324   -8.09891509866201
H        -1.34979255334565    2.23954742019250   -8.16493278168010
H         0.34580844140579    2.60201732906085   -8.47470103329581
C         2.96336482042450   -2.88807149607871  -16.14153073378662
H         3.47596665476500   -3.72551107388911  -15.67548023527317
H         3.63768572963005   -2.03437238633489  -16.15028979395411
H         2.73669518694119   -3.15815509455652  -17.17053284252702
N        -0.17646833003515   -0.95771109249130  -15.19270356171507
N        -2.36209498467309   -0.29308346376730  -14.14547905503462
N        -1.80130624041680    0.16130708162800  -11.73722072517632
N         1.01471387388920   -0.59722213378947  -12.45382249926239
O        -0.81711066147204   -2.39832594435230  -12.58195029921155
O         0.13457548079702    1.46825351982763  -13.70352615826831
O        -0.95757005551336   -1.23335345653327  -17.27535394793078
O        -3.88264673110853    0.66495421808352  -11.07516779670365
O         0.30825599380250   -3.83749042399222  -11.31533842217544
O         2.02731432904795    2.60674308330628  -13.45121700198896
Ru       -0.68454434776192   -0.43094157402055  -13.31125683845541

