59
CSD_code = VEFSUX | q = 0 | S = 0 | Stoichiometry = C20H32F5PPd | MND = 3
Pd        6.30431111985789    8.26926438889012   10.54481922864187
P         5.64384588178942    8.54638528964143   12.77341733757650
F         5.22720757063679    6.06017071527572    9.31418624804389
F         4.36783750264426    7.93335312209482    8.60219657302446
F         3.79544321014069    7.12779187791029   10.50904108502606
F         6.94634665654809    7.46608132225168    7.75928412509765
F         8.46956812684470    7.46273041354575    9.33000694501387
C         4.87629163786825    7.30694357914716    9.68865763826856
C         7.33979574835731    8.15603695027647    8.86611201958122
C         7.69064581029692    9.58338908358687    8.54535876212769
C         6.65660729120812   10.52593561888217    8.55069423425662
H         5.62514022885543   10.19942882060287    8.71628426432263
C         6.93710891185823   11.85829198076567    8.30934753901788
H         6.13742001534507   12.58433423009862    8.30606788766124
C         8.24302142770100   12.26385518532950    8.07840864796862
H         8.45968622136935   13.30636480699475    7.89784954615062
C         9.26804992112933   11.33361702599217    8.07817229280244
H        10.28471989198426   11.64857132584990    7.89439990858251
C         8.99725393084356    9.99550045276377    8.30701028572676
H         9.79408251284468    9.26632041980070    8.30413831681473
C         3.95094464787114    9.07722428562452   13.48392445248274
C         3.29575718106564    9.95677729725354   12.40583545914358
H         2.21386949838226    9.93342116148962   12.52079071113556
H         3.52897907254501    9.57859723121940   11.40667886979713
H         3.60514789425942   10.99469095515347   12.46634326475028
C         3.04773047193728    7.85117134479456   13.64745995984138
H         3.39640247619669    7.18284168837027   14.42871070618723
H         2.95895754481218    7.30981778652996   12.71017266931579
H         2.05018077366397    8.18594027684207   13.93128878830898
C         4.01819821494172    9.81137870809111   14.82147940293050
H         3.00379081909773   10.00315930547450   15.17037373545973
H         4.51975576309386   10.77107827057176   14.73884965599169
H         4.52414978944048    9.21481980891592   15.57595181297782
C         6.29047273551110    6.97337178167339   13.63911792422674
C         5.54535401961788    5.80051439164487   12.98498360881761
H         5.93986958920091    4.86086129223727   13.36993786964042
H         5.71533634877083    5.81496211664732   11.90153905982340
H         4.47779058843597    5.81106336936369   13.16731438322567
C         6.16179915069761    6.93682937398204   15.15948026803117
H         5.12381781554683    6.91466879803957   15.47800543178369
H         6.64742980970190    7.79259631142160   15.62166601337227
H         6.64072639727091    6.03391454994981   15.53772601348028
C         7.75763346522568    6.77025762362060   13.24104803120824
H         8.42576011218810    7.46158404008492   13.74702730079064
H         7.87918078239796    6.84900484946496   12.14961390401454
H         8.06309722756002    5.76267468979601   13.52304331784005
C         6.90889542374328    9.97343297190887   13.01001185566274
C         6.25291851373168   11.23311614315834   12.43237282364255
H         5.48137062842897   11.63196862277304   13.08276592424334
H         5.82353499509007   11.01311282752211   11.44702121161708
H         7.00242051755332   12.01447652667373   12.30327073355262
C         8.07464317211547    9.65274462844275   12.05409725287362
H         8.54361529513007   10.57520271793682   11.70590726488119
H         7.70359450678024    9.11806285505003   11.15548846243108
H         8.85237117098120    9.05122086429250   12.51590577500058
C         7.44574356971934   10.24527811758441   14.41129035303883
H         8.12990208168652   11.09344453182721   14.37274323772045
H         7.99889828198078    9.39311730558406   14.79824268614981
H         6.65217603541061   10.48673396936139   15.11146691889885

