61
CSD_code = VEFVOU | q = 0 | S = 0 | Stoichiometry = C21H34MnN2O2P | MND = 5
Mn       -0.37812982190297    3.06367874618132    2.50019192689696
P         0.41303148772700    4.11406686246880    0.62215239460114
O        -2.24938924049587    5.11064293832402    3.43010329797641
O        -2.75099164010571    1.62412466125408    1.57285638071583
N         1.06865954576908    1.84280195433902    2.10377397418177
N        -0.27049376712430    2.02360278554886    4.44396433366145
C         0.20164647732004    0.69473394946117    4.02141885226153
H        -0.65092846748536    0.14933571636304    3.59686469486251
H         0.59629925179096    0.11590383324275    4.86902045044717
C         1.25586650722601    0.82531714956669    2.95460169901063
C         2.29453045503024   -0.06844042783223    2.86509886331753
H         2.39806295290838   -0.86472501729163    3.58480201978281
C         3.19596216938737    0.06141822722141    1.78925083365193
H         4.01054122508714   -0.64117396022175    1.68756597324321
C         3.02060485687201    1.06524111780460    0.89362719450406
H         3.68198333820497    1.19427752161860    0.05022398113730
C         1.94267795223165    1.99587867048854    1.04573636719165
C         1.74708518004988    3.05339669433602    0.18677274990345
H         2.33559634437409    3.18079887297613   -0.70857720245337
C        -1.53865869765167    1.89889330450188    5.19334447610163
H        -2.27109241824754    1.45492390573228    4.51176839042492
H        -1.89069388596745    2.90443266382622    5.43146303138848
C        -1.48916714102577    1.06719686848361    6.47649453843529
H        -1.21183038533319    0.03511645433962    6.27716061617827
H        -2.48126815548556    1.06523175509287    6.92067696264043
H        -0.79825690350151    1.48244751958712    7.20612019080449
C         0.79402623568458    2.64500558424203    5.25610369137157
H         1.66937325108927    2.78439198332305    4.60827762597397
H         1.10393601640279    1.95518439612144    6.05679023903684
C         0.42085688132695    3.98615369634153    5.87825748728256
H        -0.05603104866267    4.63910661462338    5.14786277006955
H         1.32342360437732    4.47529383969278    6.23949553946943
H        -0.25564341053195    3.86376821927132    6.72031729919874
C        -0.65275883532216    4.31553960777891   -0.92277845638754
C        -0.88237954098045    2.87707261844779   -1.39356154291342
H        -1.20933085282222    2.26151326320372   -0.55332484604903
H         0.03301419083067    2.44992919215504   -1.79714028519354
H        -1.64963108759241    2.84759709650575   -2.16498467569108
C         0.00518868268042    5.11703737807068   -2.04077629636533
H        -0.57228269974471    4.99946730430109   -2.95743798486058
H         1.01517545403575    4.75980676663616   -2.23113219894268
H         0.03925135588630    6.17740152382469   -1.80400730094602
C        -1.99475153122351    4.92701597153968   -0.52431473192301
H        -1.89186529063574    5.96955461756605   -0.23906555732476
H        -2.41022855190803    4.37635931306157    0.32231310163860
H        -2.69231723632257    4.86940838992184   -1.35845377137864
C         1.26720918730401    5.75176946364624    1.08965786574382
C         2.37737231312737    6.16361192721242    0.12604994564207
H         1.98600635825922    6.48136526056614   -0.83450734361382
H         3.07220138272210    5.34195022205693   -0.03415835330659
H         2.93348622978905    6.99823985042596    0.55422521536228
C         0.25964105847854    6.88202196391238    1.26952463576648
H         0.72695707920043    7.71929277953828    1.78854040627935
H        -0.59391232981753    6.54345450499500    1.85475632017665
H        -0.09730905039606    7.24331974189861    0.30848969034631
C         1.90815839662764    5.41215598213472    2.44083300164707
H         2.43544928225053    6.27363144668716    2.85160309756257
H         2.62761813110695    4.59867733388703    2.32250090073352
H         1.13450001046113    5.11403254280160    3.15863652739466
C        -1.48033696871293    4.32217840116911    3.05458115304523
C        -1.80101388658015    2.21846843502282    1.88494984027536

