50
CSD_code = VEFYIR | q = 0 | S = 0 | Stoichiometry = C14H29BrMnNO2P2 | MND = 6
Br       -0.17062230352494    4.56601920438098    5.63444980888861
C         2.47643843917322    5.51125349477503    8.20725275524610
H         2.76706190018579    5.57479087600768    7.15254752621478
H         3.13546979911986    6.15648749852640    8.79128089101287
C         2.55124958369481    4.06368724552955    8.68567760665497
H         3.56383372181838    3.65710568749058    8.52918578417578
H         2.32568789854063    4.00802649445869    9.75754614972601
C         1.54487801507418    1.85840663288010    8.28996161691750
H         1.27284444797507    1.74684168242455    9.34627262554786
H         2.54259275167725    1.41227242806111    8.14584084015852
C         0.51591881360965    1.15834643805339    7.40563162298740
H         0.38643591349507    0.11596026052277    7.70445741359409
H         0.83814759867312    1.19236390914504    6.35847018966963
C         0.71814701926192    7.52789632884610    7.21660371834163
H         1.50605564886905    8.21696545168418    7.53517823829590
H         0.95603562501113    7.16553954754772    6.21205466824861
C        -0.65296102656432    8.19329677001692    7.20931555078347
H        -1.41182218470710    7.47158939969807    6.90644391688615
H        -0.67102886267258    9.02288744355618    6.50569737980182
H        -0.91745038139741    8.56835788958782    8.19676857896154
C         0.64847856346227    6.82090669974671   10.02396445081269
H        -0.41139578532556    7.00602619081845   10.23179726692691
H         0.96938012417453    6.02868016955456   10.71001710244999
C         1.46433542776438    8.08493537931028   10.26386989033567
H         2.50650452458500    7.95183624233532    9.97876914386266
H         1.43724095641264    8.33780998149784   11.32236961052498
H         1.05944583384779    8.92725715802986    9.70903407130757
C        -1.96605665184281    1.10471791546784    8.81814924652670
H        -1.99674168441186    0.05237581239156    8.52189588162701
H        -1.37472639066736    1.18448026518733    9.73618782293459
C        -3.36574171605742    1.65697136924266    9.05594475329532
H        -3.30993357305655    2.72230068284181    9.28460933766353
H        -3.84366464791275    1.14896761154431    9.89117001599070
H        -3.98935128360611    1.53090437517883    8.17299159243453
C        -1.94570797457167    1.60884825145706    5.97072834282711
H        -2.88078126676035    2.18051595049417    5.95086369086553
H        -1.32464947718211    1.99262464704049    5.15451229233198
C        -2.21764994655043    0.12308955135957    5.77129860203874
H        -1.30663741219011   -0.46346376591872    5.87258068034440
H        -2.61035559416704   -0.03652397883376    4.76892239182795
H        -2.95346994593931   -0.24847697400948    6.48025892580842
C        -2.13148272681383    4.94375855783328    8.03959333267356
C        -0.67724915889348    3.94055577671394    9.71803413746366
Mn       -0.51973780296033    4.21606167231013    7.99759915660171
N         1.55250330879471    3.28144626130562    7.96186744268665
O        -3.18772532150485    5.41164035958376    8.13036735985622
O        -0.81871640089957    3.78061345655999   10.85863385017642
P         0.70910479775883    6.06916739253411    8.33452823191394
P        -1.08936124107332    2.08990859178455    7.53043764590900
H         1.77913004827461    3.35866971344497    6.96186684786897

