43
CSD_code = VEGCUI | q = 0 | S = 0 | Stoichiometry = C15H16AuF5N3O2P | MND = 2
Au        3.83379858247941   30.33376451813360    6.64484167724682
F         6.05805427196764   30.72555878495239    4.40691003495465
F         7.57827582935696   28.97145371838503    3.01423685889756
F         7.31330498302379   26.28453766839498    3.45260688896607
F         5.50793577201006   25.39138531552942    5.30392251561281
F         4.00158059824363   27.16423746174194    6.68867991057477
C         4.97815372431651   29.00766896693777    5.59890462959479
C         5.90779015121189   29.40509825953554    4.64753896069066
C         6.69735448649481   28.52254876339147    3.92068855186612
C         6.56548737443164   27.15703516449676    4.14064982799088
C         5.64790666324761   26.70705144119840    5.08184476922974
C         4.88531560162253   27.63457757924458    5.78060130133616
P         2.53045737307706   31.79108987309313    7.79787514981502
O         0.86946151599969   33.96710995537263   11.79749289494419
O         3.58978068400998   35.28813092708699    9.50986375089874
N         1.89934308946536   34.44220657409513    8.30562287460351
N         0.08730234137934   32.83487455749644    8.32173443703731
N         1.48686311595878   32.44797187389339   10.27351946528743
C         2.42924042563834   31.56644602012826    9.64192320337266
H         2.14741638009535   30.51257616250959    9.80652656530315
H         3.43526114557392   31.71821727054225   10.03922458918105
C         2.82989081327088   33.60247016914519    7.58880683413688
H         3.84179482851527   33.84925423840080    7.93290153724398
H         2.76882761894135   33.80281865970149    6.50739848535667
C         0.71173515837496   31.85933678933822    7.45956518612890
H         0.54897740967936   32.13224950286856    6.41077763048256
H         0.26248273096103   30.87567875453988    7.63355742641085
C         0.14418719858035   32.45008168743882    9.70768360942401
H        -0.44792087321177   33.15001852861514   10.30310255515016
H        -0.28527096900723   31.44356301716654    9.79233931559244
C         0.49538844474782   34.19187120460737    8.04231573774081
H        -0.11323654625573   34.85438412855055    8.65605182124532
H         0.28629701501716   34.38379983424594    6.98046537388516
C         2.41117273677220   35.32685715711814    9.22053517861287
C         1.73990137252551   33.24074091438942   11.36088137118258
C         3.11467226725770   33.17395384060802   11.96819284438781
H         3.40806795867831   32.15202347318257   12.19527465250798
H         3.83979406992519   33.62868762577031   11.29466631642150
H         3.09639798212209   33.75315430589842   12.88759838056170
C         1.46541559605736   36.34112379505326    9.80287737464766
H         0.86285447642038   36.81599852695376    9.03320026092256
H         0.81968157158219   35.87072042090982   10.54255347236948
H         2.06370502943942   37.09377256932913   10.30974577816767

