45
CSD_code = VEGCUG | q = 0 | S = 0 | Stoichiometry = C17H23N3OPt | MND = 4
Pt       -0.05918319397542    1.24734277633637    2.49898322955352
O        -0.71740244164355    1.15636711607545    5.06096247018499
N         0.23216293645413    3.34493419454022    2.47937818282947
N         0.28318749002158   -0.82189263384046    2.29891048581656
N        -2.06348277685499    1.21465200099346    3.26782115042498
C         1.71585479812546    1.29232541702305    1.71828826464280
C         2.23605563850770    0.13443992205185    1.15471184774731
C         3.49212667303163    0.17638225384874    0.57081300789510
H         3.92968910872320   -0.70821299764556    0.12847604819234
C         4.18933129697337    1.37798294333169    0.54987323255194
H         5.16515466500758    1.41202510937952    0.08768462356226
C         3.66475177205886    2.53666095464129    1.10996890223664
H         4.23477643153936    3.45521474747070    1.08008488844377
C         2.41547682502762    2.49174662268123    1.70719054238106
C         1.70238041925543    3.60379253322152    2.43980545193933
H         1.89342504565152    4.59313423061524    2.00223852826068
H         2.06483705834065    3.61296815787422    3.47302606868422
C        -0.35672751152775    4.01827667665318    3.63532645833374
H        -0.08759318959732    5.08154975379958    3.65379933986475
H        -0.01263628213076    3.53352897998792    4.54948001344979
H        -1.44266644116373    3.93129104738137    3.59629992085551
C        -0.37584814621683    3.85048202135520    1.24605445613607
H        -1.43528914682655    3.59193170399065    1.22302674132238
H         0.11929428571649    3.40161968114118    0.38465822839069
H        -0.27738397694843    4.94247796784598    1.18420238264607
C         1.29335430003113   -1.04523624448696    1.22461371942237
H         0.76362802958674   -1.12554087074917    0.26891678780981
H         1.81839046450456   -1.99378788117690    1.40156844104623
C         0.88175284442953   -1.17326010224674    3.59280757750741
H         0.23104256230642   -0.84276679174731    4.40396881102991
H         1.83921144775991   -0.66279066746861    3.69884925563565
H         1.04108058131224   -2.25611645041873    3.66392289608503
C        -0.89906156617906   -1.64693721630926    2.06788705601198
H        -0.63343968569523   -2.71057854948465    2.01080502369615
H        -1.38465350906123   -1.35153527736867    1.13710840148375
H        -1.60411234058469   -1.50653795486836    2.88736062026330
C        -1.89315750396613    1.17283169201696    4.62878015028180
C        -3.05694098476783    1.14894702020058    5.45648810505263
H        -2.91237605284308    1.11604484919704    6.52558824335598
C        -4.29958526363809    1.16939472927653    4.89408066181220
H        -5.18442015088877    1.15283376628156    5.51681062922502
C        -4.43306668124068    1.21197350214768    3.49965948033089
H        -5.40410273187204    1.22788980626032    3.03076317125055
C        -3.28657301629456    1.23197567941892    2.74361579359519
H        -3.34016208044711    1.26157578077017    1.65834070875927

