45
CSD_code = VEGDOB | q = 0 | S = 0 | Stoichiometry = C17H23N3PtS | MND = 4
Pt        1.20734345959952    0.40936628981626    3.56655272251390
S         0.82179662012634   -1.82778613950478    2.62567726522890
N         0.27353730344426    1.56717632858549    2.07965315653499
N         2.13478073091587   -0.17448493037364    5.37273248732930
N         4.76599812714197   -2.33452805110212    0.45820042094109
C         1.47328906004941    2.17559959217585    4.35922206769441
C         0.80964290604398    3.25986365989003    3.80541013514222
C         0.96183601755995    4.50604251156473    4.39447299336661
H         0.46628368126093    5.37649363871107    3.98755593868517
C         1.75192954273179    4.62595900500634    5.53054656079865
H         1.86586517008259    5.59628957152155    5.99104096511101
C         2.38810887570773    3.52946197013101    6.09910652962055
H         2.98192272204697    3.65422170302223    6.99385000974292
C         2.25010544354879    2.28524050237142    5.50374110871743
C        -0.08992814482708    2.90317628003619    2.64530433010811
H        -0.06959117034780    3.65921795045636    1.85015188855187
H        -1.11666129824366    2.84334523256071    3.02160317689712
C        -0.91016868843891    0.92841221856226    1.50410583468890
H        -1.64825673233289    0.74617662210294    2.28575519425355
H        -0.62949396838983   -0.03314885531886    1.07278186413439
H        -1.35635692185100    1.55466673933966    0.72256548352016
C         1.28292552930886    1.75157632764570    1.03205695745602
H         2.14993938089783    2.26999140664529    1.44462161159419
H         0.87701936455772    2.34376985194712    0.20267507847242
H         1.59733035366310    0.78178719227931    0.64357517656252
C         2.88567947255908    0.98480234465659    5.93843357302219
H         2.94162130914999    0.89182934816944    7.03118796951225
H         3.90784687749122    0.94947873167014    5.54581568703682
C         2.99278257531924   -1.35721095749507    5.33241831580819
H         3.85744614021866   -1.17637528112621    4.69416182317505
H         2.43149554320133   -2.19615661126473    4.91949080415163
H         3.34157786616650   -1.62392665376527    6.33702264348461
C         0.96984861176626   -0.45841767075256    6.22005958727364
H         0.36638552849313    0.44344104904824    6.33238777162147
H         1.28741547727926   -0.79929315246684    7.21351475556693
H         0.36463552773061   -1.23993338699708    5.75548107792233
C         2.32855993448299   -2.00834688661078    1.80666414061909
C         3.34408502440212   -1.04318150813111    1.87667035679108
H         3.19260997291752   -0.13467624337243    2.47146718065720
C         4.52025503310663   -1.25775327839520    1.19264236370549
H         5.32137679298901   -0.52808798748038    1.23014223592859
C         3.80571142331377   -3.24983347464692    0.39177487327185
H         4.03547894883177   -4.11642664508006   -0.21646782792282
C         2.59008193581834   -3.14509796955244    1.03115167471198
H         1.84170864054585   -3.91822038457076    0.94352203595654

