45
CSD_code = VEGDIV | q = 0 | S = 0 | Stoichiometry = C17H23N3OPd | MND = 4
Pd        1.67127825207336    3.11334930351339    9.22896023147712
O         6.18249882575612    2.07577604877662    5.15659991951622
N         2.22216802682722    2.21518369675431   11.05929752209404
N         0.57213102859194    4.16325137673991    7.74561237556231
N         3.37148094142434    2.65249144433452    8.09017159944347
C         0.09247214875373    3.54999525876248   10.26891384134396
C        -0.06759471396465    2.97894846128484   11.52456061121004
C        -1.18712099068249    3.30725862641409   12.27589976093667
H        -1.33651896078003    2.88309831472853   13.25898422966108
C        -2.12412550008899    4.18613502871115   11.74975971285814
H        -2.99781785540146    4.43663910605076   12.33302944322027
C        -1.96377438667945    4.75188396763692   10.49225387094078
H        -2.70865374477728    5.43465498478928   10.10803516531166
C        -0.83787575192495    4.43708824393137    9.74448655228735
C         1.01607745414438    1.99531624642230   11.90377213947726
H         0.64440227238977    0.98180194626745   11.71254512563051
H         1.28555861189870    2.05854860184005   12.96785722175046
C         3.05106054674812    3.27122488311950   11.65168021119821
H         3.43193637109264    2.96220804732905   12.63535059820849
H         2.45525958327783    4.18212167124500   11.77295091953791
H         3.90203228175694    3.48028327941143   10.99629960341855
C         3.00059850581323    0.98481609624188   10.94287840560657
H         3.88997666229491    1.17091873924636   10.33870695038806
H         2.40389188233012    0.21538656923611   10.44967550867016
H         3.31140945825467    0.61775666851594   11.93009772515228
C        -0.46299469490597    5.01161841272615    8.39745756379011
H        -0.03663276976148    6.00925828854539    8.55542094123054
H        -1.33222645337597    5.11991555688464    7.73268477078815
C        -0.07810099945423    3.05144132525081    7.04195910824559
H        -0.72191614643421    3.42571194746642    6.23378604444839
H        -0.69055393870039    2.47700728391276    7.74535130572105
H         0.68278392400519    2.39734021659183    6.60609265884117
C         1.35168115083962    4.95360136350777    6.79577696203553
H         2.07892218680163    4.31562942078566    6.29174519417874
H         1.89276051382240    5.73998407773614    7.32479238602768
H         0.70272749381937    5.41320511866942    6.03881836435360
C         3.37752295656061    1.54173579056757    7.32002127868281
H         2.58355400494612    0.82107603556827    7.54599685374057
C         4.28868135592792    1.29799494609917    6.34374618582504
H         4.24341307503383    0.38786231262548    5.76404708218047
C         5.34355770897853    2.24424174095461    6.04623543318472
C         5.30302282275082    3.41208825225261    6.90084400579172
H         6.05801595183147    4.17140325002284    6.76046758569986
C         4.34348234269364    3.55965810319003    7.84971454552213
H         4.31124856548411    4.44888994534504    8.48706248480275

