67
CSD_code = VEGGOE | q = 0 | S = 0 | Stoichiometry = C21H35BMoN6O2S | MND = 6
Mo        3.09824488692936    4.55600432171881    3.07359885803296
S         4.45357953483843    5.42652299310735    4.88242098641032
C         3.72826640387846    4.58248820634700    6.35796570849264
H         3.77508740763340    3.50846545415272    6.14966667809414
C         2.73924954243217    8.10928374601854    3.75408791762346
H         2.39463877110034    7.19149659637895    4.24070419393861
N         4.32524674639784    6.54789391834327    0.91312949637417
N         3.32489181128778    4.52515546460250   -0.05317581760624
N         3.69864000972104    6.48110867065158    2.10271497707659
N         5.53733187508795    4.40483765492635    0.99544888888035
N         5.11113554706939    3.95940896745913    2.19212147403337
O         3.01957710071976    3.03922028570225    3.71213184003397
N         2.59763362953710    4.17116284749715    1.01515328894762
O         1.65205177911258    5.27785479651061    3.41125832504421
C         6.06698291168060    3.16479563862158    2.68224327800467
C         3.46821398043122    7.73454635565139    2.50412799776649
C         4.50601890883538    7.82639156144582    0.56006285585895
H         4.99146102377429    8.08342537041995   -0.35992695313307
C         2.69647728146519    4.14465245592910   -1.16858202040857
H         3.11565212410432    4.33675527971764   -2.13583711244636
B         4.65042497940280    5.28400717264562    0.12433516519303
C         6.75238513369986    3.91271378734729    0.72519462990903
H         7.25890236129231    4.15869200771737   -0.18629794609159
C         3.97635788319580    8.62322619938931    1.54786680053862
H         3.95559205630610    9.69269593180121    1.57832418373261
C         1.48945052118588    3.56074817685018    0.58530151765051
C         7.13457329058171    3.11391339321898    1.77701307633518
H         8.05017392884329    2.57017896053208    1.88192710484443
C         0.45390456791745    3.02224091339051    1.51835310975863
H         0.44317771557895    3.66627987307842    2.40976127499164
C         1.51803729554512    3.52116473311208   -0.81260253675763
H         0.78438098794964    3.10233046415438   -1.46901025266148
C         5.98441141452327    2.43587640255192    3.98351287868201
H         4.98136202150636    2.58601024558470    4.39341187338132
C         6.19236694196337    0.93610150768867    3.75906418401776
H         5.45146828828425    0.55203556432901    3.06172403700561
H         6.08516110896436    0.40416831876162    4.70128431063845
H         7.18477745521002    0.73506338385143    3.36108380964483
C         7.02402738155349    2.99088403090619    4.95997094448885
H         8.02976305553214    2.84943978870259    4.56885991032881
H         6.94842032248444    2.47625057332898    5.91496238594016
H         6.85482485454287    4.05349509173939    5.12022825381378
C         3.67058519714902    8.86550072999979    4.70365513776835
H         4.51243010173789    8.23390851028654    4.97785273392521
H         3.13281967361294    9.14055070978392    5.60771110076517
H         4.04536195849095    9.77289030033550    4.23437881496014
C         1.51153862028020    8.95259376720691    3.39955037401864
H         1.80126725460228    9.87735272742963    2.90477913648303
H         0.96229150207495    9.20162454581477    4.30414192964052
H         0.85219591271031    8.39238335853225    2.74095472213044
C         2.28237829752789    5.00794269702407    6.54990553701482
H         1.84942807742888    4.48092931730852    7.39953866567867
H         1.70099108592620    4.77197669582818    5.65389493663830
H         2.23121544237060    6.07974539714369    6.73863280834596
C         4.58330431262887    4.92999509482122    7.56754736196251
H         4.56949007626230    6.00490446813216    7.73135044787098
H         5.61302358296684    4.62152877727515    7.40934608426421
H         4.19654887421809    4.43090140542981    8.45407690919912
C        -0.93065002575160    3.02113747952566    0.87119473265058
H        -1.18025547963555    4.00948957454778    0.49294585389952
H        -1.67866725361092    2.73591799868611    1.60615229917429
H        -0.97255551897915    2.30945139371817    0.04928587571725
C         0.85432871196275    1.60816420805860    1.95723965627240
H         0.98607443728295    0.95973327083302    1.09227878002010
H         0.08212939467742    1.18777750546579    2.59600154680447
H         1.78450459315008    1.65266814514160    2.52386191916524
H         5.15219632883834    5.52814481573719   -0.91696094076989

