71
CSD_code = VEGGAQ | q = 0 | S = 0 | Stoichiometry = C25H35BMoN6O2S | MND = 6
Mo        3.69946926393793    5.11467983081009    2.05807716764266
S         5.75692870087647    3.79753521072150    1.90904946936389
O         2.79007858517955    3.97106045383799    2.81349000590971
N         2.96760845371809    4.62930234892532   -1.01183082146766
O         4.15297497828767    6.20638587051307    3.20829231494383
N         4.34528476249386    6.64011412916301   -0.64719936441029
N         1.96797038422338    6.64782517471867   -0.04351012048893
N         3.22660862084295    4.00601929273869    0.15260172368160
N         4.81388621253734    6.35989574015975    0.58360485436978
C         5.22746045730617    3.39357672790422    4.59390001421463
H         4.70290288212455    4.34520437267677    4.57750523595375
C         5.98396505159339    6.99069852342654    0.72026420044782
C         6.51108629782015    1.70066886927495    3.46898226388174
H         6.98438973802983    1.33868384183483    2.56939094196894
C         5.81594959120012    2.90482152527446    3.43207378110800
C         1.15351895583693    6.92072816483769    1.94958595258260
C         2.67864417174021    3.73089521785929   -1.96109518932146
H         2.44482276135104    4.03728932544129   -2.96073226583907
C         3.09496963213470    2.69337504653325   -0.05943227195697
C         0.89139958481849    7.42524237388842   -0.18399605434617
H         0.58776565719684    7.78615193854392   -1.14614464718897
N         2.13067289754564    6.33572821249035    1.24979528264665
C         5.99264495738938    1.44697570238153    5.80899040130013
C         0.33473258700042    7.62700376074843    1.06254974183512
H        -0.53533637075214    8.20416084236357    1.29579492941076
C         5.20727675386332    7.43174212051393   -1.29678305318616
H         5.00963561292754    7.76349389856613   -2.29622555792799
C         6.27265997755402    7.68159904156483   -0.46360990563497
H         7.13624531857553    8.27722576245523   -0.67448071575208
C         2.74931192272927    2.47747339065195   -1.39977524932863
H         2.57739374531521    1.53838308329743   -1.88300187824446
C         6.59400788388782    0.98283237374433    4.64660731374040
H         7.13515746936510    0.04699056771619    4.66003389853248
B         2.97240775076184    6.14956079152836   -1.09664555866894
C         5.31471456143241    2.66095412942060    5.76244766812922
H         4.84954012476385    3.04164505296775    6.66058248036510
C         6.81604982981576    6.99023258838432    1.96249119964710
H         6.30855129049189    6.39225060731148    2.72700311348049
C         3.27725112474457    1.63443613889693    0.97980670332162
H         3.49507944725784    2.11441109435618    1.93902934335380
C         1.02491175952767    6.77393776914066    3.43101802153972
H         2.03782361499986    6.65683379013722    3.84261325544538
C         8.19056061384510    6.38030501847150    1.68118430873309
H         8.07973133195067    5.35547015366321    1.33475792572028
H         8.78448407318398    6.37358828091403    2.59164097336145
H         8.72064764710420    6.95515656724383    0.92451730951143
C         1.98233415584881    0.83351742734519    1.13610277021191
H         1.17051664139459    1.49086517079633    1.43870853771226
H         2.11211514815394    0.07285437149121    1.90182929909127
H         1.71026208246504    0.34454387077703    0.20289021532779
C         4.44520881978446    0.72319576825134    0.59693634722412
H         4.23474323336763    0.19879977995148   -0.33313790685783
H         4.61265544554225   -0.01049645826633    1.38147645171831
H         5.35210770625455    1.31041961777169    0.47240768515738
C         6.94587785097409    8.42272309680909    2.48803724820423
H         7.43118711674595    9.06541966856329    1.75626956852735
H         7.53672595320061    8.42774173900170    3.40056837199641
H         5.96140300430512    8.82608278123668    2.71360503315655
C         0.35742091348896    7.99961186734395    4.05421612301429
H         0.87915307153383    8.91002068940836    3.76910458564854
H         0.37798434545931    7.91697096913573    5.13758889374604
H        -0.68093463670029    8.07649582567633    3.73873870373616
C         0.23339181526424    5.49841633160762    3.74573123037997
H        -0.74305973262784    5.52314446075566    3.26437367250340
H         0.09273500851474    5.40713959335290    4.81937317286584
H         0.79057417800912    4.62943694749780    3.39557942355863
C         6.05799459701175    0.66214476162264    7.08507715083602
H         5.09519381534396    0.19181447507970    7.28661493654527
H         6.29219938856895    1.31327737099901    7.92518578530004
H         6.81299055530727   -0.11780470462809    7.02390534348278
H         2.69497885429828    6.53661986046511   -2.17750178549918

