39
CSD_code = VEGHOE | q = 1 | S = 0 | Stoichiometry = C11H18CoN6O3(1+) | MND = 6
Co        3.22862554191553    3.19426813910595    0.71160260266341
N         1.71935562556083   -0.09914020519219   -1.01169533431814
C         1.74199331235821    1.20913478579999   -0.74115741579238
N         2.57214570586244    1.46188887813262    0.25571160007511
C         3.11343801697402    0.26189044047468    0.63242701306855
C         2.57775015603948   -0.71831021425170   -0.15425137573163
C         4.13622559343278    0.13415224761172    1.70889766615288
C         3.90249677603757    1.12407963038964    2.84516123271410
N         4.15644491919506    2.49589758332069    2.37754651226350
N         5.26846819259809    6.64851189006926    0.72713985833951
C         5.16718006216303    5.31635193605707    0.70866084165452
N         3.93550057941341    4.94121220088592    1.00697968481029
C         3.21349929191925    6.08593915777698    1.21455147632175
C         4.04552673596438    7.15646410786325    1.04644232234108
C         1.75791012882894    6.08037924705549    1.53423960754702
C         1.36833938824302    4.90164567320669    2.42008389491230
N         1.49357076401698    3.64343201353112    1.66745010631711
O         4.58509126198938    2.87918020596315   -0.44486911824427
O         2.73284550754089    3.77724045246066   -0.92883572356915
C         3.89220636215462    3.40239678939576   -1.44190151454209
O         4.24417442163069    3.51487478108222   -2.58034196531983
H         1.19123101820595   -0.54549213718926   -1.74593991751613
H         1.18324278410385    1.94863077316478   -1.28054653476134
H         2.75150088546931   -1.77373650731564   -0.16761626831012
H         4.12271582163406   -0.88555355849903    2.09324431453777
H         5.12317227205313    0.31848905714027    1.27478782070159
H         2.87117169763543    1.05298673190328    3.19991561556479
H         4.56931571498056    0.87401852633329    3.67840855617421
H         4.07827054754880    3.13140207460146    3.17071056681017
H         5.13224782316483    2.52974054006090    2.07512320504476
H         6.09301608105089    7.18530907714003    0.50526405719399
H         5.97035921162701    4.65151742466674    0.45789588053007
H         3.85396213192867    8.20633964223510    1.11951121419913
H         1.49757694700321    7.01824940051797    2.02441942042888
H         1.19632894809107    6.02126198598957    0.59742696782598
H         2.01890149125761    4.85913316623835    3.29730088928558
H         0.33713643077035    5.04045393195644    2.76479559854474
H         0.85526655660203    3.70967967314969    0.87186147460211
H         1.15119529303387    2.87938045716682    2.24889516747944

