59
CSD_code = VEGKIC | q = -1 | S = 0 | Stoichiometry = C30H16CoN4O4S4(1-) | MND = 6
Co        3.85188805331637    8.65345270340315    4.26194713293224
S         2.24490288021613    7.14103673235887    4.72057332841231
S         5.79980722730956   11.84431858726716    2.09401438259949
S         2.32129709319376   10.32951988974473    4.30976984892563
S         6.35528231221064    5.45048952855248    5.83277158362739
O         3.15835158452701    7.27145606610794    0.55403629160931
O         4.06416220132265    9.92456146082517    0.51965843897810
O         3.39878262472088    9.38681137532793    8.22283570724633
O         5.40937940282671    7.56115989880919    7.76732005695092
N         3.55405239636694    8.60896418266455    2.36297687777412
N         5.28063752610271   10.00874627436301    3.82624490023620
N         4.20307465799836    8.73835050692522    6.16695966740619
N         5.18354390548696    7.14457762223695    4.28281554755003
C         1.06729168341594    7.25938058526470    3.45084177209470
C        -0.26883393785386    7.02704872222942    3.78822121374939
H        -0.50879671641549    6.85956406394202    4.82715513748645
C        -1.25159556225628    7.01414763583352    2.82348685874946
H        -2.28081129883119    6.84144750344905    3.10753244116783
C        -0.92281165647492    7.22353233955417    1.49035667095501
H        -1.69097987997303    7.21602337822291    0.73019070782477
C         0.39446587425824    7.44219308010764    1.14388927926504
H         0.67793297178135    7.60377103806771    0.11395889342270
C         1.40000201271422    7.47361066084182    2.10810298035443
C         2.76543107295824    7.74267586721376    1.60299409195618
C         4.16148807320727    9.60682916706521    1.69352842146975
C         5.02371666474574   10.39513010883114    2.61308498125055
C         6.54766059467444   11.94609555170841    3.66242067366430
C         6.15984652283784   10.84646299206235    4.45740937472522
C         6.69510141627002   10.71102540286803    5.73791319234850
H         6.43297911433505    9.86303634466030    6.34769262586670
C         7.55498652530168   11.67971979270910    6.20559257303811
H         7.96389482101370   11.58496970227467    7.19998400292321
C         7.90304988060506   12.77938644630818    5.42309430784250
H         8.57167360883814   13.52760373891731    5.82206285388600
C         7.41088828262641   12.91824335886916    4.14214385411153
H         7.68394732524386   13.75602225847007    3.52012000026806
C         3.13873599746444   11.45379139734147    5.35615723333849
C         3.21175998467660   12.79477997019358    4.97285817171224
H         2.78457864253613   13.08050964273707    4.02263790320622
C         3.82147393822025   13.72759080387952    5.78432507925300
H         3.88482898129619   14.75824733617047    5.46301279661355
C         4.34995515892837   13.34607738511512    7.00939780022367
H         4.82495793695007   14.07579063548752    7.64926674788449
C         4.26322881213738   12.02562200738869    7.40694086272339
H         4.65802436627705   11.70870285023209    8.36152380078352
C         3.67921259439556   11.06697450264882    6.58710761828657
C         3.70353575807968    9.65951711391003    7.08449758370958
C         4.96259732670330    7.73321536878713    6.64542973123565
C         5.40423101634676    6.85598602740254    5.52926967838598
C         6.47009179564983    5.22001223620196    4.11131884892707
C         5.77537446086447    6.24641149163898    3.43426927763669
C         5.78139602914925    6.26383294170282    2.03968240298771
H         5.26306858972374    7.03531725420093    1.49698302324012
C         6.44465193139447    5.26234589796212    1.36469775499456
H         6.44080594806733    5.26784612654013    0.28561704778355
C         7.11273265211234    4.24534908290478    2.04496144005087
H         7.62092134745401    3.47267275198848    1.48690994682854
C         7.13530860695899    4.21663451266299    3.42410451831931
H         7.65363886598784    3.44040809483728    3.96503005920037

