69
CSD_code = VEGRAC | q = 0 | S = 0 | Stoichiometry = C32H26Br2N6O2Zn | MND = 4
Zn       28.03953486761515   18.44407771847469    2.71207863004705
Br       26.22319182521955   17.39865599114715    1.57198728587887
Br       30.04055787811544   19.62690017850135    2.39446273081414
N        28.58121473542957   16.88635535990341    4.13033439887429
N        27.15909898670373   13.75015885366788    5.24111700480990
H        26.42036023217711   13.80326540136680    4.55294102118073
N        26.12391366381335   11.82498731767670    5.86999173918237
H        25.48693947536029   12.07913137378782    5.12996236874000
N        26.96958124718273   19.63208267549602    4.18683225549374
N        23.55933080331993   19.86320156984498    5.37198634837371
H        23.23856021534746   19.20375433071763    4.67606054888504
N        21.38767357304772   19.85732026908328    6.04650361038508
H        21.29704309104304   19.16224282686861    5.32079494064752
C        27.79849298013654   15.82842774548628    4.27976894636256
H        26.92730719078678   15.77853627074664    3.63982318120938
C        28.05372477339887   14.80438054682465    5.19297942062396
C        29.19486909169978   14.91601219340598    5.98987306520793
H        29.42774006946257   14.14986870379516    6.71024119446756
C        30.00441920332943   16.02456442068465    5.82345934011310
H        30.89701361871623   16.14189038047997    6.41632153158070
C        29.67073019240740   16.98778731920861    4.88695254551866
H        30.29095825308087   17.85760117463025    4.72870672464850
C        27.17064475464750   12.66707998974388    6.11682245623190
C        25.78663357124545   10.63840807015847    6.53835387591436
C        26.66056614102477   10.02956777295135    7.40699607701976
H        27.61880484788658   10.47929597263736    7.60123854258671
C        26.31790887750237    8.83222599389136    8.04453426237973
H        27.02781168414352    8.38193010201956    8.72136303110337
C        25.11054368472112    8.24063395897988    7.80954895325061
H        24.84367030250219    7.31311989687807    8.29331572135884
C        22.93063820775838    8.23475121394143    6.68717902108902
H        22.70580496601950    7.30304254283311    7.18538130118299
C        22.02005906368586    8.81014698239120    5.84830158759723
H        21.06375495590139    8.34280713872668    5.66815838598525
C        22.32716562329163   10.02322538453962    5.21919975459352
H        21.60159886633389   10.48152507109526    4.56353756076496
C        23.53517482202580   10.62920390550607    5.42981085877898
H        23.71798694848253   11.57107427215790    4.93010068042183
C        24.50722164998947   10.05977306699162    6.28135543549380
C        24.18349704347976    8.83611877010616    6.92994156845664
C        25.66885302065313   19.45075251869410    4.35760588424088
H        25.19285160277861   18.72789689342492    3.70807559965496
C        24.91214662599594   20.14382444010837    5.30359185589903
C        25.57426309716926   21.07066332552941    6.11102827889610
H        25.02847071766588   21.62570311859730    6.85558156080560
C        26.93225640914695   21.25118749695885    5.92258188215278
H        27.47648355290678   21.96146140472125    6.52370617530405
C        27.59757016102666   20.51914129058769    4.95414055023984
H        28.65553868078152   20.64767147514254    4.77926861940424
C        22.62900062394967   20.38233217722479    6.26862748006661
C        20.19838535834092   20.12832646338474    6.74034911606875
C        20.07119375937608   21.24037329662309    7.53767224729792
H        20.90777697398690   21.90627389768294    7.66077973949496
C        18.86616172803213   21.51517168836773    8.19396184442942
H        18.79954065833244   22.39757025976210    8.81192644904690
C        17.78965403039237   20.68889209813555    8.04530940212380
H        16.85439261076074   20.90171718679722    8.54130225866733
C        16.77817784072747   18.66843224267449    7.09070731541006
H        15.85707408704741   18.92115656821121    7.59558005702067
C        16.86501538766301   17.53768730963726    6.33033609970633
H        16.01508789375773   16.88115341958512    6.21985991702004
C        18.07101176440658   17.22199819684896    5.69135919610405
H        18.14086105038118   16.31979526753999    5.10178256821533
C        19.15771906108500   18.04376992223580    5.81267911793993
H        20.07160253988576   17.74817265888202    5.31476706495335
C        19.10295015191516   19.22803986254173    6.57983766871186
C        17.88190636465223   19.53399433951711    7.24177523911075
O        28.00498012674191   12.52581407935193    6.97781105983435
O        22.91463213674050   21.18039437556855    7.12807784837608

