36
CSD_code = VEGSAD | q = 0 | S = 0 | Stoichiometry = C16H13HgI2N3O | MND = 3
Hg        3.89417588900285    3.40575204227654   11.03772889013667
I         3.09828753282082    1.01104583687830   11.70118026944728
I         5.05412208563684    5.71958270242078   11.30844861667209
N         3.26163030629959    3.43108983209728    8.62110373411388
N         2.53170623502235    5.88313597498409    5.99996897671154
H         2.39854344156427    5.80358619785737    5.00114398070671
N         2.22600085972252    8.11346038764621    5.64125279695864
H         2.19963353327917    7.83152008095964    4.67296277816803
O         2.38768832899042    7.31340694198564    7.77984621338918
C         3.05726010104437    4.59041321263531    8.00756383285461
H         3.13924100850333    5.49011282792101    8.60046061131926
C         2.73896317168730    4.68080440188741    6.64944623336752
C         2.65207870097772    3.49066272232480    5.92306748524342
H         2.42113020806784    3.51326633192862    4.86704063450749
C         2.86177900039423    2.29052526093079    6.57213108466047
H         2.79521842337288    1.35463293119568    6.04113469006640
C         3.15987180950395    2.30120484699465    7.92364844981944
H         3.32348235539621    1.37745951227978    8.46153805899034
C         2.38329920782344    7.14314472070276    6.58662491745739
C         2.06401710327491    9.49410765692737    5.84913495282033
C         2.39806280831221   10.08195384971766    7.04542126086631
H         2.76362775102900    9.47591162980739    7.85642859429059
C         2.26576340206897   11.46392042432377    7.22295008838594
H         2.53705136923317   11.89336419879510    8.17507954696379
C         1.81416675997315   12.25533527623052    6.20631421606350
H         1.72031306153307   13.32342931826787    6.33446096027212
C         0.97994398474574   12.49737928162765    3.91192078771721
H         0.90912838262465   13.56274918298022    4.07639943625077
C         0.61282787082339   11.95448169203815    2.71404608032554
H         0.24886068753113   12.58047589250918    1.91332017471054
C         0.70012855544717   10.56918767718302    2.52406425489494
H         0.39464240791964   10.14122258735017    1.58049871205352
C         1.16341741273670    9.75872889074791    3.52380897060722
H         1.19523163812904    8.69339090995485    3.33679707227349
C         1.56567697718624   10.28438767478335    4.77123889642868
C         1.45572762832625   11.68906709084687    4.96582374049336

