72
CSD_code = VEGZEN | q = 0 | S = 0 | Stoichiometry = C28H32CoN5O6 | MND = 6
Co        3.56115207653024    0.90297578393015    0.56522880164401
N         3.24030062830552   -0.55738844905174    2.17272567057495
N         1.45720979040217    0.61294168221675    0.26210471830159
N         5.37922705517070    0.83247402390964    1.32105840347766
O         2.93926934671209    2.22874889481632    1.79175366436527
O         1.10520062460555    3.21306732348085    2.55307875001067
C         0.92440434401807   -0.33992325983736    1.28548395092656
H         0.92954540127445   -1.32785693110781    0.81456965402465
C        -0.50773398899886   -0.02020536100401    1.74887469506690
H        -1.17553987878572    0.05046077701077    0.89083550522926
H        -0.51473047961915    0.93253205344975    2.28039703679398
C        -1.03180079378650   -1.08135355275950    2.71011624882771
H        -2.05674677700322   -0.83427370057095    2.98955057250373
H        -1.04481256107132   -2.05933654362295    2.22338213139590
C        -0.14414714860776   -1.12695394843493    3.94601563636433
H        -0.50594692739513   -1.87849035310549    4.64991835376520
H        -0.16206247749198   -0.15769060704526    4.44723239567816
C         1.27612532277960   -1.47127165196361    3.51363998161567
H         1.93087555065554   -1.52994347955018    4.38561969402741
H         1.23428545047155   -2.45363474772011    3.03960960651848
C         1.81453842460520   -0.41083746420146    2.53989209800237
H         1.72501013589751    0.55148604615944    3.05108243575282
C         3.61659150814154   -1.96257487387075    1.84594627742551
H         3.33672884967013   -2.13983480144145    0.80603616031340
H         3.06241043998145   -2.65283071990136    2.48525759632495
C         5.07460332329266   -2.29843752113372    2.02620853786191
C         5.97483900681548   -2.23098105400414    0.97061954447607
H         5.62860826583205   -1.95380277904410   -0.00962553454152
C         7.31075312487742   -2.53748049940783    1.15809449301333
H         7.99394563712948   -2.47055345594428    0.32507916309364
C         7.76525533288041   -2.93929957247671    2.40177912865453
H         8.80795169682645   -3.17687595733634    2.54980920191512
C         6.86796092110575   -3.06628831229977    3.44837964968405
H         7.20585331129772   -3.41681201124967    4.41260013976471
C         5.53377538518516   -2.75713955520921    3.25830718648442
H         4.84004969712204   -2.88876404999334    4.07817817019918
C         1.14018712796954    0.12027498128250   -1.10100750354838
H         1.66476547188990   -0.82976454125828   -1.23127080583959
H         1.56314647296518    0.83482554236817   -1.80920567461707
C        -0.32189713316132   -0.06825514102210   -1.41124589314028
C        -1.10957913528295    1.01095728070074   -1.79782307862642
H        -0.66634348060535    1.99061904474152   -1.89291530973716
C        -2.45374461384128    0.83751369431877   -2.07707799672847
H        -3.05356956997821    1.68571159067817   -2.37145036203378
C        -3.02672339674369   -0.41991090630276   -1.98963564409382
H        -4.07510031416553   -0.55498557210869   -2.20926689737925
C        -2.24495398459300   -1.50643619992458   -1.63660920431297
H        -2.68042240091843   -2.49351591134107   -1.58651550227109
C        -0.90227374181848   -1.33093871200178   -1.35233633095234
H        -0.29781269444659   -2.18830205417698   -1.09098672641573
C         0.97941945510117    1.98922105326989    0.47705422535431
H         1.27621537219296    2.60482201160299   -0.37479685921859
H        -0.10368593893139    2.06634148407309    0.57774443702427
C         1.70187452653159    2.55552550110594    1.72643573257023
C         4.11397271510977    0.01648000220104    3.20273800855634
H         4.26529463095461   -0.65464928970881    4.05513640800649
H         3.65726626639485    0.94283564066806    3.56498257406236
C         5.42520521299863    0.39600416453086    2.58299567372491
C         6.62084392639548    0.31626309600219    3.28423318140138
H         6.61460889216399   -0.01246547323923    4.31128974124053
C         7.80358757215365    0.64277227213144    2.64760847977675
H         8.74456943589377    0.58419743137036    3.17231836276101
C         7.75014358837702    1.02903849237456    1.31855539064493
H         8.64468337189162    1.26820215010081    0.76773146815563
C         6.51762677185429    1.11806954631896    0.69732046417114
H         6.45128456698113    1.42585161344543   -0.33582319040006
N         4.87000803886674   -0.02802223175416   -1.53269750541960
O         3.99593231018329   -0.40791362145958   -0.63602995975811
O         5.22206224694315   -0.87084594600139   -2.33861764923738
N         3.87694158203866    2.20494673018998   -0.57194472769089
O         4.77284451208433    2.96539575412270   -0.31629706199947
O         3.12937271772452    2.27688515101150   -1.52232998356157

