67
CSD_code = VEHGAR | q = 0 | S = 0 | Stoichiometry = C34H29FeNP2 | MND = 8
Fe        4.38190621495523    9.96736668960134    3.97093114828518
P         5.33310202953666    8.63047428027359    2.61940041166984
P         5.06074498724717   11.54708926726006    2.73437041345300
N        -0.12388489152631   10.79760974360357    0.78599946827364
C         2.96927612192104   10.17851488196407    2.77507047267095
C         1.94575186888375   10.39254357312663    2.14493205846477
C         0.82366896841788   10.60568750964841    1.41804922995086
C         6.03997964048736    9.54984888479027    1.15631944693371
H         7.10003891917759    9.73888712378214    1.34835308604413
H         5.95207575412680    8.95129150941843    0.24494135909058
C         5.29914258869745   10.87833324625079    1.02281415148063
H         4.30438356560539   10.70442754754738    0.60327103807963
H         5.84427587045157   11.58822985572181    0.39166652645043
C         3.01232747662021    9.47348676823497    5.52465857425786
H         1.98210793643078    9.17729815613003    5.42136533447461
C         3.47575428550152   10.80145902089155    5.67947314461458
H         2.85708904213733   11.67970359717766    5.75821509061589
C         4.88084624245136   10.74941548045443    5.88357522401368
H         5.50998005661502   11.59039048405759    6.12685001474188
C         5.28616174985324    9.40560717217567    5.81009970139763
H         6.27208612551793    9.01849992711575    6.01098935085069
C         4.12395339328888    8.61175568941264    5.58217387272205
H         4.09630737237960    7.53388581980045    5.57825168636029
C         6.73984910489572    7.65540505405618    3.24902596402879
C         8.01725134125465    8.19005547540285    3.38283652725141
H         8.23770235874694    9.17835170730681    3.00554878119755
C         9.01757253185745    7.46514429224277    4.00484575111632
H        10.00823328618687    7.88737776290462    4.09467702718961
C         8.75189304393578    6.20637673375966    4.51768367027394
H         9.53419299032003    5.64373386115970    5.00519672677225
C         7.47656198402598    5.67557337604256    4.41047591352545
H         7.26155612590674    4.69809672821280    4.81726146902649
C         6.47636444488004    6.39746631383378    3.78758948321415
H         5.47942040643012    5.98531887977144    3.70640490444871
C         4.35812168618066    7.30955278452906    1.82706618850892
C         4.90938724955667    6.47636947404809    0.85740622361898
H         5.94279293584876    6.60434526646329    0.56133185391552
C         4.14017711881554    5.47876952008699    0.28928466058753
H         4.56629172933364    4.83395732102182   -0.46585108416145
C         2.82367038353477    5.30305808121541    0.68816305545553
H         2.22535605608322    4.52499827268735    0.23739420024507
C         2.27815424059467    6.11898184004852    1.66509504724706
H         1.25447555940260    5.97812121482038    1.97877646048773
C         3.04540893391192    7.11812597681582    2.23727477794305
H         2.63951302046240    7.77343946094237    2.99525279285790
C         6.71533709258035   12.27745780864364    3.01495638226144
C         7.57005642030786   11.66031367417891    3.91783335070228
H         7.21786063251291   10.78924095378292    4.45316012703992
C         8.84435991681195   12.15798807240662    4.12544298948796
H         9.50682640482368   11.67398801295455    4.82889640770628
C         9.26648858329258   13.28006049341975    3.43205399997890
H        10.25926821145939   13.67360297646830    3.59397945217386
C         8.41464063969858   13.90314859247845    2.53247433480078
H         8.74579145646033   14.78033805565511    1.99568215305135
C         7.14223235820611   13.40560151737856    2.32164478132218
H         6.47034694393304   13.89138774338693    1.62623677850991
C         4.06148188964001   13.04711861747059    2.54366537081555
C         4.05769607218273   13.90489469222164    3.64157511738060
H         4.69655404198951   13.67474540375386    4.48556292883781
C         3.25384629484485   15.02736371050412    3.65052106103203
H         3.25661409503277   15.69054473224451    4.50358749844214
C         2.43521426146104   15.29532482529331    2.56402921941965
H         1.79887606372463   16.16786699790109    2.57042454807722
C         2.42749052671340   14.44126942524193    1.47419266522392
H         1.78202782486986   14.64488255027443    0.63272392738199
C         3.23452171503727   13.31689990954392    1.46067671011042
H         3.21114670347009   12.65133560898357    0.61126899659690

