62
CSD_code = VEHMEC | q = 0 | S = 0 | Stoichiometry = C31H22Br2CdN6 | MND = 5
Cd        0.56601325174030   16.72407119218564   -1.27574263006722
Br        2.83696033468514   15.65965792078398   -1.02666142652295
Br       -0.54464487224882   17.97286961264270   -3.11587440867590
N         0.01718372746544   15.93840337358048    0.93020976224172
C        -0.73897972399481   13.96693160951272   -0.15812262920061
N         0.67236356122101   18.49487947202426    0.42766467848985
C         0.67013225202876   16.60366742485751    1.87931390707706
C         0.55669488976308   13.88272796841525    1.99548223806757
H         0.52160581956273   12.80534188421369    1.99999132809563
C         5.13719408045258    9.83774215145805    8.25173696961442
C         2.62928548006395   12.65990371230126    3.79620536648977
H         2.70314667776648   12.31468604290405    2.77576254840967
C         6.38365651264919    8.38047966261263   10.29375199680995
C        -1.95688868908063   12.17476347379153   -1.17178298315794
H        -2.42519184665689   11.20310481881572   -1.11866810481101
N        -0.76859475485453   14.66549800071031   -1.29667806940012
C         1.92153148619083   13.82911205531752    4.07473927060223
C         3.22575932851713   12.41191869171839    6.12540856696929
C         4.49878539076603   10.53696581002674    7.15561508056522
H         4.54198191617207   10.01272078229421    6.21027854031343
C        -0.04418079266356   14.60989942899605    0.97469052213723
N         6.99400022600405    7.68133954621017   11.33649773631665
C         5.27579788676234   10.37303880793664    9.53685893668054
H         4.90626061212397   11.36256978519804    9.75364663946905
N         7.10674034139722    8.21360240784121   12.56514263845313
C        -1.33350953672123   12.71103388968078   -0.05759333049836
H        -1.32529780461108   12.17289952563303    0.87702560134156
C         0.74732740822902   18.06581756467666    1.69066533944091
C         0.88727403017313   18.95262757998514    2.75569360308435
H         0.91966832096442   18.58937000867909    3.77065770189915
C         1.24332271775086   14.56072643588583    3.00198685170153
C         3.87148104513790   11.72152310091463    7.22317698555025
H         3.80660419515788   12.23574325486441    8.17277207279593
C         5.88817247421243    9.65892568114026   10.54209098396463
H         5.99729095665876   10.06919845218283   11.53335109454570
C         2.51617802999493   13.58791009097900    6.39412348994871
H         2.46391312364275   13.95195511012543    7.41039382055712
C        -1.36583109345170   14.15183313843407   -2.35923141491572
H        -1.36100377557905   14.76664860134890   -3.25228429182642
C         1.28652013145583   15.95283471534107    2.94192383211431
H         1.85368892945768   16.50619744704139    3.67307009721068
C         5.64896174688632    8.55587223054782    8.02189499937319
H         5.55902303938739    8.12046211125468    7.03717840486555
C         3.27388718646691   11.96999913543167    4.79917510759000
H         3.82919305029197   11.08090776976582    4.54572888537896
C         0.95956343290136   20.30987808972341    2.49102269954671
H         1.06664000017885   21.01770365644563    3.29955310212807
C         1.88141872323518   14.28695489690305    5.39084008163751
H         1.32534503785399   15.18210931554457    5.62968077862291
C         7.54811339006230    6.44511014923858   11.35807612939921
H         7.60297649065235    5.78446992402369   10.51898251149659
N         8.00682172621782    6.17497689088992   12.55211070881864
C        -1.97321396733599   12.90450299991672   -2.34935372541598
H        -2.44687728292086   12.52166306240454   -3.23882675959505
C         7.71461636061473    7.28733970640824   13.25952942927186
H         7.95736204340438    7.40300960729322   14.29533762088206
C         0.88741984856793   20.74275000069023    1.17677728596584
H         0.94002196048955   21.79056271899702    0.92907479549495
C         0.73973362370323   19.79210940754339    0.17724876585098
H         0.66708231393197   20.08089518052647   -0.86518714987819
C         6.26200224938919    7.83064128267973    9.02110680391782
H         6.64219677775145    6.84434163053280    8.80706061277206

