63
CSD_code = VEHSEJ | q = 0 | S = 0 | Stoichiometry = C30H24ClN7Ru | MND = 6
Ru        7.74630218348885    3.91509703870100    9.52105397887362
Cl        8.19618297692710    5.25739890192442   11.42497432598544
N         6.49866792996566    5.43509517462815    8.87589272555727
N         4.43999716627065    4.39407612844295    9.51972252103175
N         6.23831558268555    3.31089470914891   10.63962488023927
N         7.46357848597810    1.95240666834138   12.16303153395268
N         8.88600091236289    2.41884489706813   10.27859919400464
N         7.15353126483235    2.96193001972105    7.84563211344716
N         9.16372241318683    4.60139396267450    8.22995957654560
C         7.01858812836244    6.53945968797695    8.33229309407478
H         8.04650043982032    6.76251969746373    8.59472342478987
C         6.31798069811452    7.39241875702773    7.51081649789035
H         6.79897205700183    8.26692662209761    7.10382735835883
C         4.98511483271245    7.09369815475180    7.22125356984581
H         4.41731854015357    7.71122487557769    6.54129657436261
C         4.40418889729395    6.03334710083268    7.86365833464597
H         3.35997290099544    5.79161622138368    7.75234933947824
C         5.15822337835438    5.23758535431758    8.75513018125118
C         4.94690023647977    3.64202234004577   10.45741112246170
C         4.14716919077436    2.98944278161703   11.49701573125001
C         2.79522712882782    2.98828287316515   11.77594639099251
H         2.10392452473522    3.52793504839799   11.14812984882427
C         2.36721012453581    2.27284900129882   12.88696068799164
H         1.31519337854541    2.25242851914951   13.13214852746219
C         3.26602774068950    1.58703886826009   13.69336800636122
H         2.89796465233015    1.04640950943812   14.55318548149764
C         4.62741910076461    1.58699871651581   13.41691340015113
H         5.33340953955421    1.06239889527327   14.04064896202737
C         5.05634413051705    2.29428689643156   12.31242367800118
C         6.37885063775668    2.50569760166831   11.72016364366612
C         8.65761422630921    1.93760981910294   11.53305079646356
C         9.66991489426022    1.23646439264126   12.22235492247392
H         9.45132695147713    0.93246894349519   13.23244695944958
C        10.85755204769766    0.93859545115604   11.60767853363233
H        11.63818142462412    0.40503194617529   12.12783316818857
C        11.01551218151195    1.31178478458160   10.27211680270622
H        11.90329714416068    1.05042071008361    9.71833649336978
C        10.01774491832417    2.04264377844485    9.66912697187538
H        10.12142910844290    2.34465455489382    8.63104451551583
C         6.05738207390820    0.97955527012104    8.77500090026840
H         6.88423349002664    1.00649054187430    9.48203728144936
H         5.98092775996074   -0.02192697750925    8.35432780431589
H         5.13025355121787    1.18913351926548    9.30885137217947
C         6.26740039711584    1.97198021165426    7.67440639630730
C         5.55565641439552    1.83139300502330    6.49216723908635
H         4.82499752551413    1.04288072573057    6.40745442290184
C         5.77159043547799    2.71718111115402    5.44537226603118
H         5.18992148782937    2.65390491977666    4.53927439052849
C         6.77154474188075    3.65757910516971    5.57838155130159
H         6.99052516829255    4.33322764082077    4.76883942847029
C         7.47564959545497    3.74501385550589    6.78037624833805
C         8.63646675111310    4.60110763759791    6.97495873405892
C         9.22878557106759    5.30832325340338    5.92556002554244
H         8.78130901757585    5.30569127394343    4.94621499036739
C        10.38908413092035    6.01404417919434    6.15663812493534
H        10.85472257110377    6.58697515175568    5.36993084320898
C        10.95706393177093    5.94896920411810    7.42149144390635
H        11.88159542642391    6.46276081555952    7.63165282613651
C        10.33535966402687    5.22942942591142    8.43344088622249
C        10.97970688760796    5.15050000608929    9.77486878299729
H        10.24233256090659    5.32809202125145   10.56064193165127
H        11.77963632616082    5.88117686841239    9.85637579499450
H        11.39708244942300    4.15701783026481    9.93679244610095

