60
CSD_code = VEHSUW | q = 0 | S = 0 | Stoichiometry = C20H36Si3Ti | MND = 12
Ti        4.21868231882175    3.36406589295126    3.13847290694421
Si        4.34150211875559    2.07605671833404    6.20657979116433
Si        1.70081310942121    2.23445114961297    0.84545110815241
Si        6.71874159939286    5.97905362453157    3.17165658625841
C         3.39186581266169    3.48572719254628    5.38368492855736
C         2.29507823581008    3.28984330210150    4.50892671576745
C         2.12299414128959    4.45182981853412    3.73418165419385
C         3.14573134425356    5.35638422040115    4.08040234344185
C         3.93985946788442    4.74990507998350    5.07165958450761
C         5.08573587905805    1.61580697417340    4.53458736944260
C         4.32436947896983    1.00814243539846    3.50916910732264
C         4.98712629671566    1.18795922148107    2.28309867121508
C         6.14428159188300    1.95380309236345    2.52953699821325
C         6.18604940153887    2.24281649783103    3.90694191553703
C         5.61083235954196    2.64629149282617    7.50744124254128
C         3.21170049801026    0.72286988423740    6.93346763513418
C         3.21345885976657    3.30001097512445    1.27139011677357
C         1.78743936301941    1.76081773481199   -1.01499868030113
C         0.05347164501487    3.19374719441488    1.08007522296250
C         1.44086153084879    0.57338049320563    1.76958178629282
C         5.45652102205861    4.87022143109995    2.28877933318385
C         5.91648193584437    7.60976349210654    3.79088195861207
C         8.07036501436296    6.50438295964231    1.91076016027501
C         7.70434791988027    5.27708689619088    4.66259673639330
H         1.60423400233269    2.45699629484288    4.54947953365247
H         1.28560800935744    4.67059166428541    3.08820094063426
H         3.22651951171660    6.37702201094988    3.73266273317800
H         4.73928199705334    5.23150543190280    5.61644662664077
H         3.46939368859203    0.36939444221511    3.67546269826106
H         4.72809831507303    0.72039978176047    1.34256151093814
H         6.92688870425503    2.16660997069904    1.81173638277738
H         7.01084500497248    2.71182975508317    4.42032242679868
H         6.30602782727681    3.37820587879083    7.11073213417360
H         5.11035917320058    3.09238574905109    8.36024862246014
H         6.18997928013176    1.80345146174070    7.86894948110462
H         2.46829533093008    0.38490104378635    6.21941406931505
H         3.79425348976742   -0.14046173933719    7.23720092574320
H         2.68608756842114    1.09044265971090    7.80849548826765
H         3.99620381101054    3.05712277715568    0.53668899031003
H         2.91935944164906    4.33828735833611    1.05427419556991
H         0.92888714398972    1.16916033221233   -1.31662996901572
H         1.81396554551801    2.64353049683347   -1.64640016568134
H         2.67734867966410    1.17813024341764   -1.23426599219619
H        -0.73880639955234    2.73259044833312    0.49825127107079
H        -0.27173250052721    3.19898982942821    2.11585637522424
H         0.13557980912552    4.22523235898751    0.75047067276707
H         0.55000233643233    0.08266014102822    1.38702280874011
H         2.27013051630602   -0.11167814462347    1.62754010411673
H         1.29479033437916    0.71457560745256    2.83613869493766
H         4.75668046583047    5.56911999359756    1.80539485680708
H         5.99077226531749    4.38046576964603    1.46150256992988
H         6.68132907047629    8.33231973701382    4.05944314228610
H         5.30137114073188    8.06466854572831    3.02024031800948
H         5.29188333220234    7.46113695270762    4.66545794961656
H         8.80033881962753    7.16900525117603    2.36207212804125
H         8.60833162453230    5.64205137099818    1.52819698298728
H         7.63918863152209    7.02231400455581    1.05967585143654
H         8.27843006198855    6.07460645766178    5.12637129953612
H         7.06571736738612    4.85086388116039    5.43031600818702
H         8.41304565457360    4.51625440790668    4.35004314074894

