98
CSD_code = VEHTUY | q = 0 | S = 0 | Stoichiometry = C37H56N2P2Ti | MND = 6
Ti       -0.19942356468283    1.70939413237026    4.09007871114632
P        -0.75106293550180    3.50942909871479    2.35114004654709
C         1.01332132269478    3.96033134872782    2.27238462825833
C         1.49424385494360    5.23208671499528    1.98451263645262
C         2.85140384621731    5.49421705664330    1.88010215855987
C         3.35836722343615    6.86784134476826    1.55366778763307
C         3.73821771955442    4.43587578188608    2.06591684771346
C         3.29026107075733    3.16981738268474    2.36083608479433
C         1.91550442059796    2.88524805062292    2.48799296313983
N         1.44691338183324    1.66103499170807    2.86360009369182
C         2.15479944426347    0.51905491855163    2.60340947559579
C         2.83690423593793    0.29273178564531    1.39401932430451
C         3.46494010332492   -0.90661357601785    1.14912275591946
C         3.45360595707818   -1.93828730336427    2.08604578372424
C         4.13459496241813   -3.24157987322363    1.78872121693743
C         2.79777864464906   -1.72460330486306    3.28897670972572
C         2.16331916496665   -0.52024490015361    3.56370167903306
P         1.30840629462692   -0.08166029217310    5.11040669398619
C        -1.08452168925665    3.19924069877572    0.51708977245039
C        -0.17766137018300    2.05639932619432    0.06469026833316
C        -0.89107580268563    4.41078976494112   -0.38883744124511
C        -1.62766858407476    5.13909442011695    2.64576492623986
C        -3.13601381086971    4.92525428622459    2.56252682276137
C        -1.26670589387524    5.67593248955751    4.02711889097631
C         0.76567567668006   -1.73634897300018    5.78071150500062
C        -0.29908803033715   -2.27616821605794    4.83138951792269
C         0.20664243095084   -1.55175401535188    7.18816831617765
C         2.73472895276436    0.37376936118272    6.24693744169175
C         3.36334775842175    1.66084789340112    5.72170837179978
C         3.79435233221299   -0.71088724505805    6.40940359638186
N         0.07799759160922    3.06439896644127    5.39144105830112
C        -0.31134741164590    3.52579238278071    6.58961555112702
C        -1.20022689540188    3.01234656450795    7.49721493604481
C        -1.98884028899793    1.82588725333205    7.53230051479105
C        -2.63885040070354    1.56111247071785    8.86884171682060
C        -2.22961349861794    0.94334177777048    6.51484274956421
C        -1.76412107731355    1.04346728472534    5.19388923446735
C        -1.91877679802583    0.66734955127658    3.94376080887655
C        -3.08503093650303    0.14461302885618    3.14093067289078
C        -2.57896281685927   -0.58742234497726    1.89146659165126
C        -3.96193501813722    1.33050786642014    2.71997049222336
C        -3.93219573242720   -0.81664450639626    3.98655822799895
H         0.80016343333367    6.04735831350307    1.83177675302946
H         2.55996059744294    7.60402513871267    1.62102856043098
H         3.76376275457380    6.89380867962730    0.54079936006467
H         4.15653574715556    7.15507976347934    2.23747517530871
H         4.80135684916688    4.61642669672694    1.98391557964500
H         4.00521196438088    2.37278470315826    2.51477296321941
H         2.84849010603455    1.07008778765000    0.64193666537339
H         3.97439546646702   -1.05583761357437    0.20684875603596
H         3.64992785771036   -3.74162777932452    0.94983750652354
H         5.17742704015035   -3.07715103990961    1.51885382803858
H         4.09938902629044   -3.90412410425021    2.65039142400001
H         2.78856147264971   -2.51815359333519    4.02348404886793
H        -2.12767291816687    2.86383475839913    0.44962838966574
H        -0.50274735067572    1.66573722749507   -0.89911728497580
H         0.84591999726671    2.41352414792753   -0.04122316325707
H        -0.18142487577085    1.23945906604858    0.79228120488208
H        -1.64133369167667    5.17679783538529   -0.20837094691090
H        -0.97676951474366    4.10046884153247   -1.42976589861346
H         0.09870365551539    4.84144602850423   -0.24670741913002
H        -1.32060912381001    5.86112694572805    1.88108354604309
H        -3.43764939566617    4.55949579720427    1.58280970912476
H        -3.65855782036354    5.86323928636206    2.74755134987477
H        -3.44696266742497    4.20494080539223    3.31886296139190
H        -1.77610090653722    6.62252320559711    4.20708540594766
H        -0.19393960531844    5.84562639154718    4.11864877040807
H        -1.58061562526379    4.96460925986338    4.79432911065970
H         1.61356137808983   -2.42994042385426    5.81033832357314
H         0.11320049233651   -2.41699674702708    3.83118061546722
H        -1.11848860372536   -1.55738547905542    4.76931938743415
H        -0.68505791114958   -3.23176201419363    5.18506616454273
H        -0.51788008143795   -0.73728024742052    7.19336300365000
H        -0.28807047500355   -2.46331290041506    7.52138101500179
H         0.99629784371392   -1.31693689558062    7.89907170989056
H         2.26593541144557    0.58600674311001    7.21702598225319
H         4.10788149315343    2.03948720654813    6.42133868554123
H         2.59754256502894    2.42554667279428    5.58274967089220
H         3.85483854917419    1.47892306732944    4.76641135944820
H         4.60838481438482   -0.33575816221219    7.02890516691803
H         4.20663931131232   -0.98923338555531    5.44099814482606
H         3.39239564607689   -1.59930895467434    6.88983916880948
H         0.77192267005079    3.68725339029596    4.96248394867643
H         0.17046153832307    4.45692767656189    6.91459855581399
H        -1.27230020967336    3.60101876779605    8.40585169036206
H        -1.88743443302128    1.51740299132059    9.65762005204578
H        -3.33503915110186    2.36194369930205    9.12042550964114
H        -3.18751446953221    0.62176956427910    8.86346917995766
H        -2.81902308200445    0.05683661690031    6.76068752207157
H        -2.02086315032394    0.09774006232831    1.25507189216073
H        -1.92057188030287   -1.40869303106505    2.17378850746358
H        -3.41183633730919   -0.99258111844855    1.31752333251304
H        -3.36830773580292    2.04422114397237    2.14974612402844
H        -4.35487994863246    1.83256728713717    3.60256091637758
H        -4.79708565292657    0.99527407076554    2.10549255598437
H        -4.29166370845482   -0.31084948064295    4.87906686391652
H        -4.79230826998833   -1.16390462853392    3.41501950260983
H        -3.34966291919911   -1.68427548513650    4.28904895201952

