80
CSD_code = VEHWUB | q = 0 | S = 0 | Stoichiometry = C28H49NiOP | MND = 5
Ni        1.75503465364448    0.54322322013827    3.93029202561304
P         2.04121052073123    2.66168339332978    4.30584950899107
O        -0.04833477841589    0.67426877703803    3.36156572632384
C         3.39487558868410   -0.40647114939132    4.57465481302402
C         2.24659186381892   -1.23702733253656    4.58538233730985
C         1.53511579860993   -1.31199029991375    3.37254263419698
C         0.07432641653075   -1.72354066741293    3.30903779311552
C         1.67232792969082   -1.71758773898045    5.89768644323552
C         2.25992017902835   -1.29928642538111    2.03770386135171
C        -0.67754716029742   -0.44802110204846    2.86122838846614
C        -2.20943562820880   -0.48864146535251    3.13780412631829
C        -2.46587094726327   -0.74004171354876    1.64789261751656
C        -1.00262861776769   -0.40636352219145    1.33508234268725
C         2.96658559255916    3.09575901468205    5.86908942452673
C         2.46013854157705    2.25730347115415    7.04320785914014
C         3.43302229167663    2.37199637118585    8.21297336369141
C         3.57495540471658    3.83361671634656    8.63234129853688
C         4.02252342195405    4.69680073209027    7.45496913146888
C         3.04974635128881    4.56024723476299    6.28297839592240
C         3.02852255225874    3.50731414440805    2.96680485847512
C         4.44100627470382    2.92475900605706    2.91853372593660
C         5.22445239882913    3.43903849107493    1.71416851885297
C         4.49431041092836    3.10497607169262    0.41926056047702
C         3.10297951515292    3.72588785826855    0.44089516921514
C         2.30725144680429    3.23305991473509    1.64526036946573
C         0.41693564303172    3.57138339586086    4.25287663402101
C         0.40838816961618    5.09070436433752    4.10199921736122
C        -1.02713478032840    5.55745683664046    3.85535291577321
C        -1.94164567787681    5.13004789010819    4.99955966961875
C        -1.89985843826124    3.61526625829105    5.18027329815238
C        -0.46740277867230    3.15319992218555    5.42606328364421
H         3.92676436040057   -0.26502348535722    5.51015532663165
H         4.06199411025925   -0.43174435414840    3.71565889205405
H        -0.28955057941929   -2.01639031588434    4.29411588795041
H        -0.08051230101602   -2.55686988560159    2.61918372557268
H         0.78856926027227   -1.14854149448682    6.19040803594072
H         2.41567230409714   -1.62153633854488    6.68707068667070
H         1.38967727400478   -2.76704124735996    5.81418858685410
H         2.37739387150757   -0.27844435129225    1.64760497257673
H         1.69017902198293   -1.86265305223430    1.30255203332397
H         3.25034151600477   -1.74664880439497    2.12688506418650
H        -2.56205325621263    0.48265137478706    3.47769648765282
H        -2.55177480509348   -1.25861903113411    3.82737124279683
H        -3.21008580356594   -0.09842206825434    1.17905536961464
H        -2.71402495033434   -1.77931148677126    1.43564538500610
H        -0.47475551582889   -1.11023902735115    0.69408407062349
H        -0.87089752821332    0.60197070708884    0.94732936055618
H         3.98496819836865    2.74525511965496    5.65218923426973
H         1.47957109196189    2.60816984996632    7.36405903388023
H         2.35069111837607    1.21611193081319    6.72512376801026
H         3.07717894162148    1.77789814441703    9.05754067456148
H         4.41053896056865    1.98253241929660    7.91791375827935
H         4.29519278647580    3.91971812605377    9.44877514824037
H         2.61174893725311    4.19654770475348    8.99882945615074
H         5.02026846994691    4.38549349840072    7.13598438666433
H         4.08366674826404    5.74222529117539    7.76595643725642
H         3.38484117012683    5.18135033987147    5.45031214049873
H         2.06766050802383    4.91175754375423    6.60100678349035
H         3.08553068979472    4.58502992340633    3.15110360438859
H         4.35997994402975    1.83497941135701    2.86162245879936
H         4.98633221245147    3.17740260424091    3.82939958507749
H         6.22205731079020    2.99406779272468    1.70910316029306
H         5.34307224941723    4.52268639065791    1.79305733892338
H         5.05922424029446    3.47676608641847   -0.43815023045465
H         4.40759223280360    2.02065619054559    0.32016737697097
H         3.19620337435051    4.81407908701418    0.48991000621659
H         2.56707310837275    3.47877802872575   -0.47787832169653
H         1.32655536094184    3.70946865459220    1.64596772357665
H         2.14146267051296    2.15069755125991    1.57066699225375
H        -0.04071213804316    3.12362884858470    3.36092941045395
H         1.03452925082510    5.40995131259219    3.26793345408424
H         0.78357316108804    5.56941987625068    5.00662913060152
H        -1.04838753910656    6.64491130310520    3.74841023379644
H        -1.39172950262866    5.12175069348128    2.92251561790352
H        -1.61512640295234    5.61473861105851    5.92345316563682
H        -2.96439321461816    5.45572845392409    4.79753761053567
H        -2.53722357132558    3.32245591262077    6.01765336085333
H        -2.28029406264273    3.12853135330818    4.28091884554145
H        -0.10659582667586    3.60068432646610    6.35436852321105
H        -0.43114961627741    2.06406881280241    5.51245469129624

