83
CSD_code = VEHXAI | q = 0 | S = 0 | Stoichiometry = C31H49NiOP | MND = 5
Ni        8.57174501721778   -0.21670408528844   17.76242008166041
P         6.58785292162814    0.58037492210070   18.12970082690533
O         9.01749894992327    0.99346219696488   16.36220807434592
C         8.91832157364254   -1.62931605684299   19.13874333048421
C        10.11229341773748   -1.07107789464012   18.62223898379671
C        10.23378544138625   -1.07580470205595   17.21964280325213
C        11.15115627248881   -0.12340848709947   16.47724658090543
C        10.17995194890918    0.75227398154009   15.63375376147454
C        11.00367043480490   -0.23695311080356   19.51240005623280
C         9.70684985201524   -2.23033234904321   16.38366293097984
C        10.86643593029025    2.04612036587235   15.24819374505240
C        10.79411763323787    3.14333047711920   16.09499370685231
C        11.44343816400665    4.32184180875277   15.77769258612566
C        12.18459045076852    4.41195022432007   14.61156061693748
C        12.26720231969720    3.31957794550698   13.76424457307012
C        11.60935303293866    2.14413866785351   14.07948286951946
C         5.87092269832397    0.40798730466389   19.84725629839157
C         4.47252513363598    0.95324169755977   20.11402144311521
C         4.00884154046915    0.48917020505064   21.49541329419975
C         4.97801513638691    0.95884548541985   22.57772059676495
C         6.39594708965886    0.47201513473509   22.28702565319497
C         6.83576494177872    0.94458768902731   20.90424088539270
C         5.33258899190128   -0.29265489793695   17.06067823866040
C         5.76823428173147   -0.12419079928421   15.60370513330551
C         4.92618195257403   -0.96695313325079   14.65106180444241
C         4.96794839639933   -2.43835886646707   15.04412606880321
C         4.46669709962121   -2.59972921692044   16.47380430184366
C         5.31704684651552   -1.77552364327785   17.43560507601839
C         6.48391624730769    2.34242510078610   17.54457643955036
C         7.38408612565023    3.24656139555197   18.38406388570055
C         7.58422720383537    4.57584632470166   17.66308724783457
C         6.23490961940192    5.24944550103624   17.42689243216898
C         5.30653376556026    4.33166432606803   16.63603961808651
C         5.11837404443418    2.99683727941747   17.35834820300490
H         8.51935625719802   -2.54124972352216   18.69944414865378
H         8.75700138229881   -1.57703891530417   20.21046377985486
H        11.87237704589434   -0.65491359364912   15.85047982383797
H        11.69450607634629    0.52346557215248   17.16570081273741
H         9.93579766059763    0.19937826717185   14.70306618276531
H        12.04954083014361   -0.46633282084484   19.30965352986674
H        10.79603167821687   -0.45803395559098   20.55777790129341
H        10.85359508973862    0.83248657970877   19.35532872383410
H        10.26805977939334   -2.29889527480253   15.45427467159695
H         8.64882068282590   -2.09560820366904   16.11811559976864
H         9.80339031751461   -3.17406103763769   16.92117876946896
H        10.20836340008783    3.05587545194050   16.99719301540069
H        11.37402067522433    5.17242581193164   16.44146204809417
H        12.69537070195919    5.33103363969591   14.36134928734358
H        12.84399563794847    3.38641802735526   12.85228342650090
H        11.67075168719055    1.29536171805651   13.41165272115775
H         5.83976632031601   -0.68288961683284   19.97847584582747
H         4.48896338413388    2.04327403093255   20.09755175625474
H         3.76711231714906    0.61081028731727   19.35544038524708
H         3.95034627208841   -0.60192397928342   21.51015478516434
H         3.00920353834871    0.87875322021094   21.70076371722325
H         4.64981546631366    0.59245106549726   23.55273348845931
H         4.97414865353283    2.05087604947640   22.61442076331886
H         6.42106028210306   -0.61963509941630   22.32762764646617
H         7.08049536956417    0.85113520144036   23.04899617982031
H         7.85114282501620    0.60637689893136   20.67976695499626
H         6.83903347471065    2.03444882294143   20.89254819257199
H         4.33423365424217    0.13328755267097   17.20548892609213
H         6.82470370261884   -0.40836742205529   15.52888015827360
H         5.69653779129422    0.92287192896069   15.30946873927324
H         5.29401614512737   -0.84011952092540   13.63096443748180
H         3.89014790827615   -0.61834869022169   14.67748017481949
H         4.35347424160069   -3.02883321636174   14.36125052334583
H         5.99452666779834   -2.80490350522153   14.97426535520057
H         3.42728222329159   -2.26676835181890   16.53163626813378
H         4.49637257288357   -3.65155514091594   16.76742885894134
H         4.93393053531642   -1.90560190129702   18.44936573493573
H         6.35009414719348   -2.14103810549975   17.41429008140715
H         6.97638269828511    2.25614669254017   16.56638726535863
H         6.93199513519397    3.43909776906187   19.35907394912664
H         8.34162781429834    2.73922554919990   18.53594317804093
H         8.07498982380513    4.39451087003216   16.70539811377642
H         8.22752564795868    5.23173777464436   18.25442775074422
H         6.37563098983097    6.18772957755200   16.88624917192983
H         5.77397558825912    5.48655658287944   18.38960415022100
H         4.33720298581474    4.81624635153622   16.49518642488561
H         5.73758703106979    4.14896391969161   15.64941714338008
H         4.45003678329730    2.36110323619383   16.77622570532868
H         4.64853463082183    3.18347883402859   18.32471158371429

