62
CSD_code = VEHZUG | q = 0 | S = 0 | Stoichiometry = C25H30ClIrN2O3 | MND = 8
C         8.24315367772233    2.27510989008315    0.29698876469492
H         7.31025292934679    2.23420560059543   -0.27583149285981
H         8.73894571043604    1.30676723248436    0.24078594024458
H         8.90058907394890    3.03965649137248   -0.13224045242877
C         6.13446418479433    5.99470541215530    2.98697519247847
C         5.84585680040222    6.59235898839761   -0.57375485584258
H         6.83486066126796    6.51624916610404   -1.04326790403321
H         5.32180093202170    7.45332858073886   -0.98688564818525
H         5.26993781791901    5.68818323620545   -0.79297788171823
C         6.35583691281145    5.80785461378725    1.61988496184059
C         6.96968083866130    4.65143107984692    1.15113112589665
H         7.12869316581481    4.52459300893993    0.09250096584559
C         7.38053796701074    3.65764049649953    2.04042607847877
C         7.15331458805491    3.81431833888813    3.39840729635171
H         7.44345857941152    3.04365679254944    4.09346460573028
C         6.52654679905002    4.97149425699029    3.85199473324767
C         6.17426801783920    5.14585643544929    5.26767462538189
C         4.64870231551214    6.48849729882674    6.53487705374483
C         4.87461319764631    5.86211570990597    7.80157640927260
H         5.65127151810868    5.12132263836057    7.88820110475007
C         4.12092551429245    6.18799124287346    8.87935049268407
H         4.29042608084908    5.73211359308935    9.84358136137463
C         2.84976937433738    7.69379022186788    7.63152935299395
H         2.02172934309075    8.38614514889107    7.61643432813267
C         3.57069403064701    7.42617005009476    6.51788222705618
H         3.30220248297379    7.88302853978688    5.57806168570434
C         2.34892777885929    7.39379863062841   10.00690299470607
H         1.62707180400596    8.17941891404612    9.79475478616067
H         3.00396393411497    7.72629999863075   10.81453040172610
H         1.81041737794660    6.50420078831771   10.34055415887503
C         5.66741011322158    9.59042281497964    2.83309641556229
C         6.96706644077853    9.07584639778058    3.11493435702077
C         7.07478040612480    8.95361700942160    4.53260513042211
C         5.91381180291394    9.58376742443589    5.12629422913704
C         5.05162737728494    9.95934048777611    4.09539380444571
C         8.06831540804754    8.82556382767147    2.13467641032204
H         8.71948752470431    9.70121833144933    2.08635855758494
H         7.66637907901051    8.63713524307127    1.14398485782606
H         8.66892466023594    7.96770378185486    2.43023581902043
C         8.31047314271046    8.57310454530491    5.28510352977213
H         8.89910121220167    7.85252337710387    4.72190828403266
H         8.06227350827661    8.12919948860590    6.24776129524690
H         8.92980979953876    9.45419659542733    5.46797608791901
C         5.77390940451351    9.86646437025612    6.58878285987225
H         6.39575108768225   10.72264773278603    6.85988384367660
H         6.10030728839291    9.01662790721623    7.18759558893838
H         4.74370103575533   10.09606668556947    6.85337838365340
C         3.75147946158281   10.69111394422500    4.19667105699095
H         3.45003443706750   10.82134998732903    5.23405016127921
H         2.96669805019785   10.14486912939125    3.67350397114852
H         3.83921878780952   11.67679900673999    3.73675878855987
C         5.15004747124905   10.03550464664338    1.50158054826118
H         5.32555878960014   11.10554470197140    1.36804636499736
H         4.08062145815482    9.85026662617495    1.42805122817729
H         5.64581056807479    9.49653479703623    0.70007786242101
N         5.33359309188777    6.25989061117367    5.41910932987249
N         3.11983981515940    7.10242808736995    8.82372207303992
O         5.93871030902007    6.82393232650111    0.80829818131078
O         8.00535459109030    2.50073840742561    1.66268354733624
O         6.52010733104381    4.40518661805024    6.16902616944954
Cl        3.24399030175239    7.05001020151651    3.17659638481219
Ir        5.39859283602313    7.65228249133529    3.87014246558580

