58
CSD_code = VEHZEQ | q = 0 | S = 0 | Stoichiometry = C24H28ClIrN2O2 | MND = 8
C        15.47502348335697   16.11572771682018   11.93465097434928
C        14.58625714006642   15.12687622355234   12.35214496381916
C        13.38323664281203   15.77860649798828   12.83161739833806
C        13.61309740977294   17.18692025438961   12.82990788556673
C        14.85106451682435   17.41033468031665   12.15913469057253
C        16.86617077641248   15.95628865201286   11.40941774619429
H        17.57962489237726   16.41958760651740   12.09278058831667
H        16.96547786876064   16.44525004512190   10.43994617887438
H        17.13119701338319   14.90666119344295   11.29725480985820
C        14.80643401560654   13.64819990646892   12.41115698224961
H        15.71098043245571   13.35858148875828   11.88055694639734
H        13.96630508433371   13.10782652547467   11.97482762297485
H        14.90277788506029   13.32972324596896   13.45105838240479
C        12.26704399587428   15.07934645875948   13.54006842314300
H        12.54011437482862   14.88787898256076   14.58042779902065
H        12.04159582151512   14.12490431223471   13.06819107727784
H        11.36435616969151   15.68592846372495   13.53031379169323
C        12.75337624941221   18.20497838479406   13.51063381780598
H        11.69753996958693   18.01748966057480   13.32641651470563
H        12.98513297440233   19.20886147553672   13.16633668898122
H        12.92580523535419   18.16324761275601   14.58787652476786
C        15.59145111928549   18.70702795003124   12.04073290004556
H        14.91526811661635   19.55396300688422   12.12578996840339
H        16.09815366317976   18.76978758062030   11.07968033046182
H        16.34243302766070   18.78445785461501   12.83007003267289
C        12.96602223972315   13.98826075982469    9.02689528999718
C        12.26218920534392   13.01653253085385    8.24442000557872
H        11.18718172469322   13.05723305941591    8.19935492021768
C        12.93047359703935   12.05909063953155    7.55994607625737
H        12.40865283564959   11.32743363057129    6.96136065312627
C        14.99022365008580   12.85789333855944    8.30446129311630
H        16.06432647203476   12.75270909580007    8.28328292895797
C        14.38871787747352   13.84150061809212    9.01116655902278
H        14.99007653621854   14.56098272704490    9.54014664389459
C        14.93810565642185   10.89178129744921    6.85748442837086
H        15.99685389907652   11.11625419642926    6.74523228939773
H        14.49663921929380   10.78093985481570    5.86687921084915
H        14.83490467996014    9.94390905541566    7.39264628415305
C        11.01036730868353   15.18707707413138    9.70046600033496
C        10.71275266574450   16.60810025463638    9.89320798397671
C        11.79912668675165   17.42401192100348   10.24634024772322
C        11.60003453724070   18.79228923535855   10.35961728065867
H        12.42534093294433   19.44611965786083   10.59676547489087
C        10.34262043847611   19.32797184487837   10.14325179552696
H        10.19319842538728   20.39532213811680   10.22838001956634
C         9.26172949858478   18.52478386639744    9.81790098354155
H         8.29717772409212   18.98194361901284    9.66310324216052
C         9.42930305231730   17.15127182447255    9.68057298605781
C         7.15801231050593   16.79329955196356    9.08303608290599
H         6.72647410389568   17.27670902827098    9.96617827633633
H         6.55361796628407   15.92739873501441    8.81715955140485
H         7.16307397414991   17.50178217215900    8.24783518116518
N        14.28371683961858   11.95622071726758    7.57681974804554
N        12.41178440954326   14.99272518998845    9.68302403040065
O        10.21250574442333   14.28051761302156    9.58107537960385
O         8.44373515259861   16.28921850558204    9.34337742345130
Cl       14.44324592564194   17.10767195599452    8.66897380217271
Ir       13.48999683148007   16.43808851113240   10.71214488823798

