86
CSD_code = VEJBEU | q = 0 | S = 0 | Stoichiometry = C34H46BrN2OPPd | MND = 3
Pd        9.78906433710450    7.58564430989666   11.42233771528988
Br       10.66066930117359    5.34751907064732   11.06502921701687
P         8.53405816239440    9.47966338284218   11.72051102861933
N        10.75653359813797    9.05318983303546    8.91476040610123
C        13.42519845365459    7.05074129851051   10.57377985011851
H        14.18968511775974    6.33802392236043   10.30919027353339
C        11.08026243918735   10.43131006337695   11.47649276068753
C        11.64403580469202    8.54253516789684    9.91298582854121
N        11.95378859398727    8.60195981881084   13.62058473707503
C         8.10283713452949    6.56070542766428   11.83014527447866
C        12.61759397519317    7.59492710466334    9.59574590946954
H        12.73524130270845    7.27147817510441    8.57358386720797
C        13.20504920206047    7.37485992278701   11.89923066647635
H        13.76868386823761    6.87204785942111   12.66918644052190
O         7.69391809655850    6.54910728994303    9.47183230984220
H         8.66016965397982    6.71941733042701    9.50573522937890
C        12.25962911804545    8.33172330228292   12.25214965301055
C         6.46668198953626   10.47295489962642    8.26678245824311
H         6.29350873740971   11.53770815043114    8.44663445342252
H         6.78313915813715   10.35791733229165    7.22793934804258
C         9.75115634960147   10.82480868410123   11.62606779764181
C         5.83411311952449    9.32695986264142   10.89976812036847
H         5.99308477974219    8.26449424661473   10.71205069111656
H         5.50509819636772    9.43697905296562   11.93511448991398
C         7.13559137828729   10.09004321055365   10.66059161379796
H         6.97888294956735   11.14946876196098   10.90117222070510
C        11.54334820882746    9.03375614717838   11.24471314577855
C        10.43826561811053    8.08852469740923    7.86740529293751
H        11.20507600806648    8.04379489967883    7.08209224237703
H         9.49715873511739    8.38529658559280    7.40336563820683
H        10.32640150750532    7.09142587093587    8.29872742316742
C         7.73048812858548    6.17148312225366   13.10036867769136
H         8.37848967240167    6.36054520908732   13.95023497510092
C         6.09814430257038    5.55905906788637   10.93913801186728
H         5.49038319608880    5.31673654937993   10.08108738210906
C         7.30306490364953    6.22089963988731   10.74123895113913
C        12.07977877318018   11.40619859538925   11.45271951224627
H        13.10899480819683   11.10195457206870   11.31432239853337
C         4.74277973189501    9.84167348359314    9.96324118155826
H         3.82244059764731    9.28092528739022   10.13661467664645
H         4.53911562283472   10.89423103927396   10.18010773062240
C         9.44117666770981   12.18007932401961   11.71600167138874
H         8.41176110736729   12.49535773072884   11.79371250693230
C         7.86442292006582    9.59188053806535   13.44955989846370
H         7.10752119336857    8.79468280390753   13.49697644488647
C         7.56119207076512    9.96535238797570    9.19919194235166
H         7.75343838028133    8.91081096948239    8.98387914505347
H         8.48603601902235   10.52481936687631    9.04058833186660
C        11.76457592137801   12.74552135770990   11.57551332648896
H        12.54920254021819   13.48737318678138   11.55974669098654
C        11.17880386831244   10.31065357696436    8.32174064225712
H        11.31184970458533   11.06949321083697    9.08879475066691
H        10.40997652876346   10.64637285603320    7.62572726740288
H        12.12310029670165   10.20276798349086    7.76732526695588
C         6.52946835034270    5.50079871784435   13.29828305604558
H         6.24422239866937    5.19970764717206   14.29571792592264
C         5.17569208721201    9.69771370412821    8.50812337422342
H         4.38833447803113   10.06263743180894    7.84553455801296
H         5.34404077089454    8.64212643531124    8.28677925842337
C         5.71131773117025    5.21330732992541   12.22183886034851
H         4.77564586050998    4.69668774978091   12.37501526657441
C        10.43902291446425   13.13432400333579   11.69679654261221
H        10.18722495631981   14.18177155480319   11.77260632475129
C         7.78407473523971   10.35644054452591   16.27669636843995
H         8.52393895550727   11.15960536586408   16.32216301922221
H         7.36953594780618   10.22747216129310   17.27847655059225
C         7.22881292976030   10.90795340804242   13.88799025930031
H         7.98315974256919   11.69762928532720   13.89337941774001
H         6.42166066312899   11.20344242549065   13.21495307957331
C        11.92108667790666    7.39963522033784   14.44143553260811
H        11.36880490269367    6.61891760037878   13.90886186520212
H        11.39905763108145    7.63436801974273   15.36990854408477
H        12.91689625058910    7.01745464145936   14.70302857119731
C         8.99977942927966    9.23199171562711   14.40449435970802
H         9.47992658979198    8.30731392754736   14.05868446504316
H         9.75371236884973   10.02382446218307   14.38546067131771
C        12.74474315715689    9.64655453822628   14.23877354059586
H        13.80815142984410    9.37436970954329   14.32025944216783
H        12.35840856189668    9.82734925890263   15.24227549366107
H        12.66183352146849   10.56630359533174   13.66364959160320
C         8.46504309953361    9.06812250282191   15.82242081116602
H         7.74317957799939    8.24836590795454   15.84766856940793
H         9.27934980845002    8.81893189365788   16.50634877833835
C         6.67501701200426   10.74809052921720   15.30433693004315
H         5.90180974158356    9.97608393095285   15.30546071579194
H         6.21318586744666   11.68424724082703   15.62594076988257

