85
CSD_code = VEJBAQ | q = 0 | S = 0 | Stoichiometry = C34H46BrN2PPd | MND = 3
Pd        4.04760036207441    9.85250281468798    2.98717725890107
Br        3.00911729549900   12.02142809297035    3.04358367065785
P         5.17647025744629    7.95153384313344    3.50133721926807
N         3.10572972848029    8.25528320922941    0.73750466569038
N         1.38377930347017    8.53733457403495    5.31484729984004
C         2.11690293690050    8.25135522312757    2.98520358986861
C         2.14958785155513    8.78342444052519    1.66880065573829
C         2.65991913712463    6.88160405971295    3.20659188750737
C         4.00052375858361    6.56524287014409    3.42714890470782
C         6.69613377339719    7.28074058699835    2.66938891782517
H         6.85471988136201    6.24181608662750    2.98038381767789
C         6.27658507571485   11.36021344207196    4.24980577472073
H         5.73708193949664   11.23407948560670    5.18287654725235
C         4.37561733883488    5.22890438738700    3.55812859675375
H         5.40994035858005    4.97215263350618    3.72921502961243
C         7.94681613639737    8.09211793910794    3.00453919068487
H         8.18113659182560    8.00805150756251    4.06789061160036
H         7.76967915078599    9.14617550851436    2.78056047541267
C         5.63236646817869    8.06278924349358    5.29905920436085
H         6.46411385705525    8.78151842093745    5.33244231110297
C         5.75533207127737   10.87812604351521    3.05940528668844
C         3.44198111106145    4.21610568674872    3.46930478582332
H         3.74892538478495    3.18626817659883    3.57680520858493
C         1.26939957141726    8.87180781750008    3.94027393073382
C         6.41852988025178   11.12909132193917    1.86677879599724
H         6.00566185393738   10.79947640114397    0.91592539690081
C         0.39250493548006    9.87101779578438    3.52477410619635
H        -0.26582732784090   10.33302372305278    4.24244045574768
C         6.41491484856297    7.32357833250812    1.16805228632451
H         5.53412958994402    6.71437978200965    0.94566149990206
H         6.18668989231355    8.35906172893529    0.89885219105972
C         1.23236865297425    9.76423108404467    1.28892846461629
H         1.22337553225508   10.13219760444456    0.27452487287778
C         4.44227293128349    8.66595250247291    6.04694619656933
H         4.10779900698169    9.59287246143330    5.54419484202681
H         3.60811349881836    7.95960566022709    6.02417772272294
C         4.82746023430540    8.95746355759237    7.49308284405637
H         5.64114121204890    9.68674159420066    7.51723808665560
H         3.97956584202782    9.38861574400207    8.02864946348581
C         1.72984567378232    5.84506713029073    3.09350535955388
H         0.69742519819353    6.08859909755939    2.87784991451531
C         6.06503796771589    6.76444286015142    5.97406450910629
H         6.91633842055708    6.32049483177853    5.45259946178087
H         5.23950912711543    6.04858731981520    5.95565585988147
C         2.11228692567147    4.52479472292062    3.22868083280499
H         1.37782286335598    3.73812753810130    3.13829110933059
C         0.33943983847655   10.27976093765152    2.20632538282412
H        -0.37504369448103   11.02812279430487    1.90214118688789
C         9.13988871306303    7.59653820320844    2.18980532980998
H        10.01794482115596    8.19902831303440    2.43006076798584
H         9.36122642487921    6.55992623012285    2.45868702160756
C         7.47814908593986   12.05190748136938    4.25023653267517
H         7.87857861445531   12.42628576725593    5.18186809085708
C         7.61409226659676    6.84090514572086    0.36049436987535
H         7.81382641066442    5.79148293441034    0.59286742611815
H         7.39418936857690    6.90880429177924   -0.70728562326951
C         3.61137831344936    9.26209760416421   -0.18937647849290
H         2.90898687954159    9.49359885908234   -1.00293018629299
H         4.52816631424823    8.88057590730901   -0.64193882768211
H         3.83168470504513   10.18492962759260    0.36761646680848
C         5.28063962228236    7.67288917895509    8.18184622989484
H         5.57635837833821    7.88420230650884    9.21152277940061
H         4.44836915498273    6.96514956952434    8.21122217235590
C         7.61795065731600   11.82576723539280    1.87184336073448
H         8.12874133307460   12.01815159183886    0.93853140534419
C         8.84400876434836    7.67805645157868    0.69631524506535
H         8.66073880230288    8.71945131000084    0.42336251227170
H         9.70501004946859    7.32537280184237    0.12497735987605
C         2.63634708073667    7.08557508313778    0.01774985794832
H         2.32027179438383    6.31534147549227    0.71791768401605
H         3.45415900980194    6.69244313357756   -0.58706515658141
H         1.79325128841225    7.32232141955752   -0.64908245759802
C         6.44888582196140    7.04534358733117    7.42675911523763
H         6.75030461669366    6.11516177606548    7.91365714372151
H         7.30313004654142    7.72649886548127    7.45027619943409
C         8.15601293704073   12.27611094241110    3.06465750660916
H         9.09151215692293   12.81616369649127    3.06740852858065
C         1.17923013913566    9.65855133381678    6.21505951881243
H         1.66875631566430   10.54229057584764    5.80750079410684
H         1.63990296480267    9.41045283664020    7.17228851596018
H         0.12064584028160    9.88606181466292    6.39911795687757
C         0.68130758546071    7.35795800286824    5.77510064286326
H        -0.41198906628363    7.47483923953439    5.72201669715536
H         0.95435455402097    7.17893481813514    6.81591431504262
H         0.97046598965314    6.48954796816453    5.18928150002643

