67
CSD_code = VEJCOF | q = 0 | S = 0 | Stoichiometry = C28H34ClN3Ru | MND = 8
Ru        9.72761665812492    2.49018561814332    3.27739377622276
Cl        7.88452789086729    1.80582382274170    4.61459278050191
N         9.09136475725533    4.36694478640746    3.29118652965630
N         8.59470010755295    3.38590236995827    0.72259458141049
N         7.57219607860245    1.56175226739646    1.20428624190115
C         8.79515047247029    4.90991278130060    4.48546721655050
H         8.69348261654901    4.20927417068462    5.30588170773823
C         8.58623089987734    6.25895397745982    4.66792162024753
H         8.36021590119591    6.63659700510428    5.65251428603847
C         8.66006869347162    7.11485233585679    3.57510469843266
H         8.50322600627175    8.17607396283380    3.68189767466738
C         8.92755344249122    6.55480204929570    2.33236806312686
H         8.97745375404157    7.17455979200808    1.44950922761456
C         9.13988126889779    5.19439002201396    2.22436822730571
C         9.43580784785254    4.54161570520921    0.89219812396692
H         9.26113051919016    5.24102334704955    0.07279040337583
H        10.48544625635045    4.21863407111135    0.87579984733848
C         8.56582137142142    2.37656138560820    1.63284609882135
C         7.64309207914332    3.20536355965422   -0.24619284477657
H         7.50736667370467    3.89072908801030   -1.05777150804331
C         7.00585706209764    2.05284077956812    0.05467573794026
H         6.21488475659057    1.53748367519098   -0.45105612904197
C         7.06062912730218    0.41077731614959    1.86501880277442
C         5.86045733058520    0.51418849654271    2.56824469199565
C         5.36818530115273   -0.62102343150963    3.19195262753834
H         4.45012772314403   -0.55071866353269    3.75705342411340
C         6.03682258986658   -1.83498163476308    3.12828619420950
C         7.21707631637468   -1.91128163631719    2.40323434748602
H         7.74479670740128   -2.85276143489663    2.34106375740395
C         7.73889831796134   -0.80015498287736    1.76073720096884
C         5.15175430195421    1.82816619237225    2.67625725491373
H         5.81460475012272    2.54857120444843    3.15668063072683
H         4.25475117577827    1.72819101450641    3.28034770147724
H         4.87572551541996    2.21499590531363    1.69543447370871
C         5.48052104185167   -3.04968372884612    3.80800117088838
H         4.88350840792197   -2.76857128744290    4.67191694369252
H         6.27998531040354   -3.71221120269890    4.13175223326588
H         4.84106311176529   -3.60369970862374    3.11916235622733
C         8.99919279390254   -0.87495211802577    0.95610949132984
H         9.68553714278365   -0.10026198888312    1.29224448772100
H         8.78804407395367   -0.70386062980596   -0.10032577620150
H         9.46883577458823   -1.84938549876829    1.06122244369422
C        11.14819865494758    1.85655856988533    4.92404479883627
C        11.62898749450692    3.05960766847390    4.38325438554442
C        11.92111470710008    2.84169713027919    2.98436781898396
C        11.69388329995813    1.45187567804171    2.70742017026480
C        11.14619015818071    0.85343521369327    3.87777763544932
C        10.82912908276708    1.55740432483744    6.35619991547585
H        11.49259638342748    0.77470061273711    6.72846807607490
H         9.80144753844821    1.20527848039662    6.45375212506334
H        10.95097176906935    2.44057607543079    6.97977038853085
C        11.97921427278057    4.31346016051662    5.12984315037571
H        13.03924362573913    4.29694009608339    5.39556096006696
H        11.40064069055489    4.40666310899104    6.04670129878336
H        11.80044229493503    5.20190191002477    4.52402635130580
C        12.78080004595409    3.75036505441252    2.15159578626254
H        13.82537586836962    3.64996805897873    2.45904916118349
H        12.49963532518971    4.79599894482475    2.27672298453287
H        12.72043876270570    3.49486636619141    1.09464614029103
C        12.20893404735328    0.75764471079746    1.47804216050593
H        13.29410861141500    0.87374063197654    1.43643806414193
H        11.79312028314428    1.17781421498184    0.56207234647974
H        11.98654501104548   -0.30592345170240    1.50180529202760
C        10.92832771711884   -0.60814327109880    4.14933638233069
H        11.71005602895193   -0.98283332544933    4.81490690139105
H        10.94828417715302   -1.19177643821689    3.23230425424875
H         9.96522222092928   -0.76703928003101    4.63332263291362

