66
CSD_code = VEJCIZ | q = 1 | S = 0 | Stoichiometry = C28H34N3Ru(1+) | MND = 7
Ru        1.17491908030025    8.46242047899563   15.37306826469038
N         0.28382989133826    6.63912737228377   15.62428960511337
N        -1.06064664733179    8.44516017743938   17.35913315122223
N        -1.18845197216937   10.18973335366110   16.10791666431983
C         0.48422622472779    5.75284496275797   14.63558020584345
H         0.97479048449623    6.13272176642181   13.74451719221901
C         0.10100190780281    4.43038857677622   14.70637724326235
H         0.29946316468542    3.76730817196233   13.88044835798914
C        -0.54373210591160    3.97981162241504   15.85040124219393
H        -0.86243845345551    2.95485149638348   15.94398014787373
C        -0.77132875817320    4.89123835380642   16.86941426393971
H        -1.27291993903765    4.58480822468401   17.77370430836549
C        -0.34343194465811    6.20257141256744   16.73492391019846
C        -0.55827410776265    7.19222492662928   17.86178387110825
H        -1.26036057225477    6.78616752596755   18.59103341803695
H         0.40584928092621    7.37087894780557   18.35802034397254
C        -0.42449646901719    9.10839882990936   16.37563023343240
C        -2.22036027127960    9.09290396495860   17.70265671034406
H        -2.88104159120546    8.73564486228264   18.46482215027640
C        -2.29752960012457   10.19433678950737   16.92015994038082
H        -3.04971650103852   10.95235589427592   16.86515591452923
C        -0.86945104438587   11.12599383396606   15.09329460787758
C        -0.58319979414298   10.65086803004442   13.80675237239017
C        -0.28650009352868   11.56857489845267   12.80896288625015
H        -0.08450141942675   11.21148435831706   11.80950507125658
C        -0.24843086382457   12.93259098315449   13.06207593994889
C        -0.50221610433818   13.37133614309286   14.35426970040992
H        -0.45822498560868   14.42859501343246   14.56952026006959
C        -0.80955460553385   12.49111084079785   15.38206767225166
C        -0.59858148088080    9.18234787595746   13.48017621418563
H        -0.65568705814327    9.04737170653165   12.40054504289161
H        -1.45753760407480    8.67310552444713   13.93155628786917
H         0.37210724817453    8.68030132763547   13.79428834578448
C         0.06828179717944   13.91433560594158   11.98049666412511
H        -0.76965898879192   14.59368749683370   11.83329073551129
H         0.27525933500697   13.41134803152757   11.04020157972824
H         0.93394115731378   14.51513192648265   12.25437469617098
C        -1.04974294879283   13.02296558832759   16.76253995903177
H        -0.77002486764640   12.30126117631504   17.52655421186942
H        -2.10096063842816   13.27628594921722   16.89745098024854
H        -0.47434378022931   13.93271605215704   16.91484412234497
C         2.83149991454221    9.85739330496491   14.85120737940266
C         3.18453535446637    8.53914243982205   14.33764514993015
C         3.29229822287962    7.65929334598887   15.42525830667475
C         2.94283956353069    8.38800165588261   16.63234193830460
C         2.74382747430721    9.77214563379311   16.26102482726870
C         2.88157816161042   11.12003223073057   14.04717252215243
H         3.91343844574475   11.47135666173322   13.99094077637046
H         2.27933334827104   11.90353905390375   14.50249178667985
H         2.52611426569671   10.96326960192970   13.03067289239109
C         3.59355838837505    8.27600029949384   12.92024554869605
H         4.61806821843792    8.62022758678376   12.76936764246486
H         2.95914048599742    8.81053701316777   12.21409835468423
H         3.55893493191414    7.21453792636853   12.68286270290043
C         3.80898893024908    6.25430659366802   15.41018233028778
H         4.85209941131816    6.25250504106600   15.73004599641721
H         3.76251938836314    5.82007762327602   14.41417633819062
H         3.25053671165474    5.61471398214356   16.09296372948555
C         3.20748977696836    7.89154416701189   18.02054849008171
H         4.27162980190504    7.98985590640364   18.24248773676971
H         2.94403486077179    6.83982255559270   18.12330606015017
H         2.65926238539289    8.47092026297116   18.76064714464348
C         2.61804481321596   10.92103526413391   17.21303436856924
H         3.61419948718192   11.26762023119244   17.49218754427285
H         2.09618435557902   10.62835155800893   18.12171054066392
H         2.08441894089257   11.75215998585452   16.75739540302972

