67
CSD_code = VEJDEW | q = 0 | S = 0 | Stoichiometry = C29H33N3ORu | MND = 8
Ru       -0.90212737292626    1.38548875471195    5.07735979043005
O        -0.37754541642860   -0.38075702549759    2.74309614315233
N         0.98747376690977    1.42829468533203    5.97185725861501
N         0.31801782403190    4.08439241599846    5.06118789353320
N        -0.64566001775198    3.83221827938631    3.14740273024773
C         1.51125183265026    0.25214283263993    6.33039513267264
H         1.23045786086132   -0.59151495271572    5.70665464266826
C         2.35986981783151    0.07608211197220    7.39315507736991
H         2.76089687553241   -0.89689379067425    7.62315970298455
C         2.67023923819937    1.20047673407093    8.18474716403794
H         3.29654138430155    1.08942353225660    9.05839479592646
C         2.17799340461190    2.41411355961194    7.83139299643663
H         2.39728926911004    3.30123267669462    8.40613206578625
C         1.34981867133358    2.56276087652642    6.66739563195443
C         0.95581791813152    3.81757935594008    6.27050116780014
H         1.26843267640868    4.68822484000631    6.82210219899583
C        -0.32733812160303    3.18159879100669    4.29626951767040
C         0.37590802705642    5.29182462697770    4.41546197594308
H         0.84007947777985    6.15296601048609    4.85082927503093
C        -0.22573629190729    5.13201904731512    3.20939030228726
H        -0.37955547381833    5.82287836520802    2.40654269419501
C        -1.14940894415792    3.20382725960205    1.98022075816545
C        -2.45291270458363    3.44658367860054    1.55499732180323
C        -2.91558256159533    2.78656881088486    0.42508419186472
H        -3.93113483953965    2.95789278875241    0.09660752196415
C        -2.10454460117349    1.91606779094416   -0.28600959256626
C        -0.78945213097308    1.74127699847052    0.12534563599316
H        -0.14046848962051    1.09103270964982   -0.44245225145761
C        -0.28903052045319    2.38044362195885    1.24722077598257
C        -3.32392596255931    4.43704797594503    2.26712796506221
H        -3.07930030176893    4.47792700141108    3.32504196125755
H        -4.37417974757411    4.18279315981779    2.14938048569788
H        -3.17066746054147    5.43255120547441    1.84789396666165
C        -2.61795247377861    1.21123743979811   -1.50456268833664
H        -3.70033081280744    1.11443422587666   -1.47152869249293
H        -2.17623683303112    0.22147968507901   -1.58997231239119
H        -2.35521709537652    1.77525625653753   -2.40010718928626
C         1.15322030493387    2.24754242611996    1.63399861231044
H         1.64523875696598    1.50613147226888    1.01149819387474
H         1.25509166857381    1.95162569641225    2.68057012033234
H         1.66054517300877    3.20464181226763    1.50544368567374
C        -2.67670790649865    0.12966999409707    5.52385077906767
C        -1.85997365265666    0.17318834347688    6.68726119498386
C        -1.83140284514633    1.53776682629613    7.14556999147660
C        -2.61107465103776    2.32274291523512    6.26640743744861
C        -3.12251740078861    1.46662380366046    5.22693784336448
C        -3.19877854938367   -1.10445701945473    4.84731128282039
H        -4.13857098746388   -1.40701777942837    5.31645359554268
H        -2.49618793286932   -1.93118119931418    4.93056626726222
H        -3.38703064229580   -0.91951766606503    3.79132042109357
C        -1.40623897333735   -1.01225945573493    7.48815139500058
H        -2.17371362546705   -1.27987755885339    8.21926105206922
H        -0.48534829430710   -0.79879019503746    8.02884247686945
H        -1.23265616452933   -1.87546574109928    6.84804024141417
C        -1.30653624206727    1.98074771847187    8.47936642259683
H        -2.08479755653737    1.85578247019652    9.23701909211540
H        -1.01208844550915    3.02893218521454    8.46494801653650
H        -0.44272445488638    1.39168390843486    8.78329420431331
C        -3.00814095536370    3.75046621997647    6.51036920884976
H        -3.87889969157885    3.78230419227226    7.17020445644368
H        -3.26806431515004    4.25953701214606    5.58368734057923
H        -2.20373295663032    4.30734179162774    6.98883797865299
C        -4.26683694551321    1.77092036251195    4.29888167957866
H        -5.12241888813016    1.14425775005194    4.56019572700573
H        -4.00702712840542    1.57219421514425    3.25951618955132
H        -4.57177959962622    2.81015766977840    4.38668464818229
C        -0.48082696908737    0.37983549326817    3.61069442932518

