68
CSD_code = VEJDUM | q = 1 | S = 0 | Stoichiometry = C28H34N3O2Ru(1+) | MND = 9
Ru        7.55620448948148    8.40351574408626    5.52107240066380
N         6.52576846311820   10.02799308725080    4.60455749756112
N         5.24017784864395    7.63187126860000    3.77971010010278
N         5.06206244755901    6.52171842649213    5.60468613576575
O         7.17345910629559    9.27270736610359    7.24606307450918
O         7.06476048056784    7.96118113239211    7.37142388586264
C         6.63177819697382   11.21054608918399    5.21435208791781
H         7.15761357094684   11.21809378375242    6.16102763772058
C         6.08115790718598   12.36906021298059    4.69684209777617
H         6.19673407781630   13.29971590001457    5.22744413934243
C         5.38281158282021   12.30503096864482    3.50092744795644
H         4.93950556654932   13.18715026724963    3.06717346171984
C         5.25389918595870   11.07260366250808    2.88120845981680
H         4.70712488824663   10.97604539599165    1.95663539020433
C         5.83879501602654    9.95419555999538    3.45776842619385
C         5.70987748656949    8.59252530674616    2.81505712968754
H         5.00554444576866    8.63308951372410    1.98265793161221
H         6.68895374650616    8.27712756912202    2.43297539090424
C         5.84365606633739    7.40581619755784    4.96796114080480
C         4.09040390051804    6.89462378881331    3.67621700500290
H         3.46010968786365    6.92293583651355    2.81189435546711
C         3.98540216515356    6.19108154449818    4.82673321158975
H         3.24309516818814    5.49384634822726    5.15645799668384
C         5.20628316967839    6.02963132094315    6.93600253245929
C         4.64332801289481    6.76764485663861    7.97819612021230
C         4.75587390855016    6.26740451748569    9.26423558689700
H         4.33394599283691    6.82891012639785   10.08418078621905
C         5.40528210793675    5.06691778894974    9.52324603730851
C         5.94067068375842    4.35188734921396    8.46080536234973
H         6.44072278653758    3.41343604476654    8.65053113774564
C         5.84532699023580    4.81418929654288    7.15682384235166
C         3.96422584819252    8.07300149161827    7.69827250992754
H         3.14805837393182    7.94765523218658    6.98633150048478
H         4.68181024405518    8.77965985373309    7.27394375438977
H         3.56578435817669    8.49849997012354    8.61406491487664
C         5.50241486523825    4.53549300515184   10.91820267809815
H         6.45469749074440    4.03587696521978   11.07796747349783
H         4.71061936596734    3.80667314890165   11.09169180532418
H         5.39306795943337    5.33275939881222   11.64798742812163
C         6.38042032289243    4.01280765525151    6.00854593385939
H         6.81944063529946    4.66314600957437    5.25477183108400
H         5.57420469303471    3.44810601454502    5.53878167778670
H         7.12778904068970    3.30359894198416    6.35302270236605
C         9.34017655149004    7.04296547332852    5.72744874898927
C         9.02449428863445    7.10384019615115    4.33734030626679
C         9.12256896228070    8.47771967534925    3.93017577615304
C         9.55324079883285    9.25482959957137    5.06863059219503
C         9.69214587905677    8.37132003265576    6.16523845922879
C         9.49076412003226    5.83160928748585    6.58773196161408
H        10.50359019117865    5.79465058127204    6.98944260935061
H         9.30389467483187    4.91815690082823    6.03150305821758
H         8.79636413709449    5.87825524888326    7.42823507226542
C         8.87564455483115    5.94306110046224    3.40104216508752
H         9.80491428663540    5.81972411474848    2.84207360349928
H         8.06953388349996    6.09090286414244    2.68440600760728
H         8.68501440693625    5.02056939462088    3.94196278664964
C         9.21229104167037    8.96517502143555    2.51395926957629
H        10.26073920180792    9.16377970124767    2.28372748402520
H         8.66390618407343    9.89466453811793    2.36029165405926
H         8.85575965532784    8.21961870442079    1.80674562696151
C        10.00710162258028   10.67888792633767    5.00511543204673
H        11.06135812375015   10.70883923653847    4.72317079199436
H         9.90333833143097   11.17084911825349    5.96964858127442
H         9.44545507948089   11.24494986663411    4.26363031695139
C        10.20375910720483    8.67752941425825    7.53046815931726
H        11.16172871216935    8.17900455155363    7.68371441992180
H         9.50868939327775    8.30749797841621    8.28592182994736
H        10.33716446682263    9.74612551490676    7.67622326654028

