80
CSD_code = VEJDUK | q = 0 | S = 0 | Stoichiometry = C26H48ClNOP2Ru | MND = 6
Ru        3.74300316237853    1.24373141088116   13.04509324450989
P         2.15807285799678    2.76981970497866   12.12347598075355
P         5.50677234172875   -0.03689102601735   14.04737844358478
Cl        5.18820316978936    3.18519842782543   13.29141883330056
O         2.31425092231763    1.14860506604257   15.65513748474877
N         4.54591674409002    0.85184512302367   11.15496321531123
C         5.53160645633095    1.48509957022735   10.52606835209145
H         5.93071327017151    2.36366658614725   11.01574645465795
C         6.04436054715654    1.07855784286959    9.30916638240096
H         6.84592311725393    1.63475587682000    8.85009706079640
C         5.50504247291764   -0.04981348084660    8.69833595647668
H         5.88714869411826   -0.40001532158563    7.75068729748041
C         4.46894152258483   -0.70237637566974    9.32675971020299
H         4.01001603604912   -1.57585062471846    8.88895290195192
C         3.99581542316284   -0.23423294318800   10.55988649079472
C         2.91565484597605   -0.84152908219950   11.27665785120330
H         2.40184796083444   -1.67973867987143   10.81610318264766
C         2.61889338943177   -0.33461848776023   12.48949979410601
H         1.78855293594136   -0.80032772564993   13.02843395720894
C         2.90463991696142    1.27907098168121   14.67037531888146
C         0.43900497173293    2.01572388632621   11.95882615987991
H         0.66655237163262    1.01757329450191   11.55709091169703
C        -0.19908506625701    1.81482569690695   13.33104382038118
H        -0.55112953383760    2.75845772570227   13.74043549858889
H         0.51049026565879    1.37147051731337   14.02427546508483
H        -1.05528200331017    1.14603440012046   13.24835611036443
C        -0.56547418454899    2.67583681193261   11.01555229942531
H        -1.48981588310431    2.09846332704204   11.04226637911972
H        -0.21789833253938    2.68600647911896    9.98676227001340
H        -0.80318487213726    3.69071960767939   11.31766268752830
C         2.37939521827807    3.47708321658904   10.39940565202903
H         1.47626504195871    4.07165720805682   10.22475407621443
C         3.59414203796417    4.40367294889123   10.30620059474907
H         4.40913011179786    4.04721336199640   10.93240333559083
H         3.34646867472714    5.41456529004587   10.62209739512111
H         3.94741794061234    4.45356857694635    9.27738462626664
C         2.43358457679213    2.38827671869561    9.32444215429615
H         2.06563462947337    2.78242254464796    8.37705968451099
H         1.83079722346627    1.52172249041888    9.59188741296021
H         3.45368869752846    2.05426362038845    9.16295891011756
C         2.03727807029944    4.38727424713237   13.06785439727019
H         2.98179905139464    4.87585219562354   12.79525321653224
C         2.06840478680078    4.20692519471570   14.58340049414889
H         2.06555591920314    5.18586825563761   15.06187439299566
H         2.98223292234194    3.69782377729504   14.88215127057071
H         1.21437369072305    3.64525987758390   14.95176717632748
C         0.88139109201535    5.30970253974690   12.68622773064278
H        -0.06609222729903    4.91960547155766   13.04988268514968
H         0.81162072922214    5.47280824748498   11.61411125490365
H         1.03860387161396    6.28036388469596   13.15591295918874
C         5.09914383840625   -1.75607778475005   14.65981161378901
H         6.01456824936771   -2.14073905762149   15.12220149110809
C         4.68166266240222   -2.68730039214525   13.52361999768582
H         4.67186836553625   -3.71808724748253   13.87687305958628
H         5.34799348910713   -2.62453105147585   12.66676589792828
H         3.68139724062649   -2.43213113317507   13.18573923110986
C         3.99041482283511   -1.72236069217484   15.70548336340737
H         3.08453312905928   -1.30111914923277   15.27470093076289
H         4.26703057525905   -1.12767525587914   16.57174175176540
H         3.77016287214846   -2.73433578416972   16.04425401144610
C         6.96848625554754   -0.38014699618473   12.90157656614844
H         6.47346934460098   -0.62171600149262   11.95015799103222
C         7.80170230448845    0.88904558489852   12.70300107086508
H         8.57125892185906    0.96252026387426   13.46942236334788
H         7.18650782285380    1.78540235380742   12.75612765234402
H         8.29794053188007    0.86580593158767   11.73364780284539
C         7.91050165533617   -1.54312379527051   13.21836588006794
H         8.58396882386248   -1.67212423595165   12.37062956164898
H         7.39149157004591   -2.48346503987033   13.37404478879291
H         8.52567730594934   -1.33486553622438   14.08932495566319
C         6.34401530792236    0.77563080620945   15.52244346467724
H         7.03675398638248    1.48037061823432   15.04754335913499
C         5.39422576219345    1.61584919776575   16.37323294922459
H         4.63604726863848    1.01174450772505   16.86477959112850
H         4.90403037530228    2.36945358934847   15.76109427944772
H         5.96516186239807    2.13530340385780   17.14226719024420
C         7.14178759077038   -0.15916031769084   16.43039888039051
H         7.72178602187066    0.44371414745241   17.12856032303169
H         7.83580007193272   -0.78446218504845   15.87823267592474
H         6.48526639201899   -0.79941700670928   17.01451837067225

