52
CSD_code = VEJFAS | q = 1 | S = 0 | Stoichiometry = C19H24Cl4N4Rh(1+) | MND = 6
Rh        9.36594655024225    6.09897080853966    4.84613130835893
C         8.80852093605841    7.67233855154614    5.99625226133667
N         9.58353110974966    8.41952336548166    6.80766415370160
Cl        9.61913681221024   10.75180735436090    8.18066965767625
N         7.65774738889271    8.36323691737270    5.83673761676183
Cl        6.43537651107649   10.67116081308716    6.57333600748310
C        10.88647917829844    8.05527099973364    7.29672892907075
H        11.17355724754980    7.11214419896905    6.82931762671132
H        10.86051730689591    7.93554110905833    8.38071170347904
H        11.61129352847832    8.83136739343348    7.05358794419581
Cl        8.36022463632089   10.49924536867537    1.36835624506218
N         8.77163865192939    8.27146047543101    2.86274447458234
C         8.92830603794757    9.57715912338600    7.16017747855719
Cl       11.80426161083616   10.61997015471728    2.28843432420339
N        10.85376214659887    8.35182288997052    3.41958231339337
C         7.71121835264945    9.54366649858815    6.54294455733448
C         6.50716079535539    7.91702262664115    5.08662614363379
H         5.61388245008836    8.20821538369317    5.64349444514793
H         6.56098957533769    6.82514043260289    5.02926673393729
C         6.43658421892845    8.50096497309371    3.67372641232075
H         6.62364626825045    9.57441833515144    3.70424647491092
H         5.42484171361214    8.34793393613258    3.29935221351320
C         7.40699464300352    7.82995769962198    2.69851107500397
H         7.39548398865489    6.74541759192083    2.85343508340478
H         7.10456748779547    8.05453085271627    1.67344956518955
C         9.28622799509797    9.42002113074546    2.30532908868539
C        10.60487325933278    9.46849439261089    2.65457823683493
C         9.73238624805657    7.61414546520012    3.54876656964956
C        12.14776001514689    8.02242271407883    3.95473612650568
H        12.04437058524915    7.12808502302883    4.56992379375329
H        12.52708001541449    8.84920259767367    4.55435078990383
H        12.85340503256063    7.83301816445724    3.14456192876038
C         7.57862726492847    3.67932772243710    5.05384006470190
H         6.63429485176987    4.11164578199900    4.71211314340763
H         7.32739910158535    2.76723651986009    5.60346898436891
C         8.44310083705476    3.32669122404158    3.82780678325752
H         9.07189007352800    2.46272422195513    4.03996713883978
H         7.78087311746833    3.04673196462101    3.00746187434767
C         9.31953006671483    4.47453859627031    3.38085263274315
H         9.04239053923085    4.91235937805764    2.42177248936831
C        10.61901468450559    4.66604494200849    3.80408056448550
H        11.28693965136891    5.20806941967104    3.13477596296379
C         8.23308407825850    4.65467350429077    6.00135690995664
H         7.52385485219577    5.18969203510729    6.63390623986093
C         9.54421617919392    4.59671512063650    6.42842560552120
H         9.78611815036244    5.12285854727107    7.35138640406074
C        10.50462991131445    3.48689859419654    6.06633264252148
H         9.94333308829264    2.56515304188913    5.91787434883129
H        11.18239312583191    3.31777601183500    6.90410781251953
C        11.34460672703899    3.81575613339744    4.81757728259040
H        12.24973252556111    4.34612178894985    5.12561298289662
H        11.66969887617180    2.88910810975647    4.33524884969074

