67
CSD_code = VEJFIC | q = 0 | S = 0 | Stoichiometry = C29H33FeN3O | MND = 8
Fe        5.31408130513912    3.75008666076561    2.48215620727026
O         2.49287120280384    4.08648248624210    2.93332832739895
N         2.10466371537232    0.60641222863596    5.69785970973823
N         4.80703392360806    0.98760729459274    3.41385865657547
C         0.82544995184596    0.27445611125407    5.71624431753713
H         0.43719568146464   -0.02215442082982    6.68206288356276
C         0.01768456827143    0.29199280654565    4.59073874627685
H        -1.02222842529405    0.01228374943137    4.65428230983798
C         0.58530109061707    0.67837868440009    3.38561522296460
H        -0.00648621642577    0.70815055879037    2.48245618186499
N         5.87518613364778    1.06945516123539    1.55122317564481
C         1.92284320965828    1.03101237616539    3.35869717767900
H         2.40172682061041    1.34675067431833    2.44499372479939
C         2.64372246873979    0.98549864196848    4.54777232758415
C         4.09728934615135    1.37987404729373    4.59672705575833
H         4.17589381008979    2.47238572685849    4.65165296226398
H         4.54982868138886    0.93767070869993    5.48875932531926
C         5.33927738266511    1.84688673041770    2.52315333884616
C         4.96986313840407   -0.30733399058236    2.99315232106333
H         4.60280207880156   -1.14366868875355    3.55179746100411
C         5.64319646555028   -0.25513409651256    1.82096692502593
H         5.92705561364043   -1.04517307376070    1.15901857925020
C         6.56128058481970    1.61654204035357    0.44676410093336
C         6.06012553694431    2.83021082224047   -0.06068478957272
C         6.73662849928022    3.41945454616863   -1.12666625794330
H         6.34424700697227    4.33520434580390   -1.54410284370905
C         7.87864845447336    2.85548349837120   -1.66890556623363
C         8.36697397433685    1.67878286366170   -1.11798465603516
H         9.27300731048540    1.24428847012887   -1.51596336534048
C         7.73261554102354    1.05179391805217   -0.05209519995093
C         4.87130687026416    3.44209405769133    0.53705126138878
H         4.01008233565819    2.77866211874524    0.43066659737507
H         4.63394129294972    4.38741695995072    0.05118130347480
C         8.58707719050752    3.49551107914377   -2.82550502013930
H         8.19954272496609    4.49346871164514   -3.01511014051218
H         8.45112064339210    2.89752235006945   -3.72670771417435
H         9.65639786233492    3.56456369548355   -2.63116436409887
C         8.37009963245185   -0.17479646650579    0.53682536559443
H         8.19153245795983   -0.24428325111791    1.60807479118751
H         9.44466418014439   -0.14439892873243    0.36841893784181
H         7.98993402137708   -1.08101491443996    0.06387310068379
C         5.80539108846551    5.78238142657077    2.98575135302137
C         6.82876670817275    5.32983030746590    2.11103017403830
C         7.42650795895647    4.18364244339386    2.69106278517497
C         6.82587646759626    3.97590097584422    3.97781812793867
C         5.83722634221016    4.96968121309576    4.16752334596049
C         5.00912205858394    7.04020893938028    2.83043422758551
H         5.52990034217042    7.88141131752224    3.29243861748768
H         4.03619252096498    6.94018104769370    3.30485043217121
H         4.85363129426645    7.27095332974813    1.77987090110630
C         7.26746443880020    6.02397223055571    0.86402750330259
H         7.92041894742252    6.86159869166662    1.11749324555395
H         6.41429309043204    6.41692573371189    0.31534532158588
H         7.81550518697953    5.34692672364579    0.21482853252626
C         8.66426778111182    3.49213435124545    2.21392317744679
H         9.55021047343087    3.96518454209403    2.64367833087264
H         8.74561854550789    3.53468918996211    1.13117194245331
H         8.66446686373624    2.44629158739115    2.51246033821823
C         7.32399279503600    2.99257545217417    4.99127498829959
H         8.25564497864864    3.35202070260633    5.43224672784640
H         7.52338522938186    2.02639090822563    4.53164652491103
H         6.60268832436328    2.84915967020388    5.79145056782188
C         5.05894098021331    5.25142579431203    5.41592966715868
H         5.49122274861048    6.10532364203094    5.94081417200678
H         5.06813944787575    4.39855278692333    6.09038272874559
H         4.02362057853365    5.49038541345508    5.18248346995495
C         3.61532674143591    3.88782528518811    2.73808031877428

