36
CSD_code = VEJFIA | q = 1 | S = 0 | Stoichiometry = C13H12Cl4IrN4O2(1+) | MND = 4
Ir        3.09240701351864    3.97291123656907    8.90913363063612
Cl        5.34473206609798    0.69758152387738    4.72237799779005
C         4.30205866548242    2.63432509088456    7.89376664030241
N         4.10071750604011    2.09509909188126    6.67698057528550
C         2.09920883182489    2.62057583669335    9.75297513952123
O         1.51462872004495    1.78033369728822   10.25444652814561
Cl        7.81044399267147    1.13650720625506    7.26784937946938
N         5.58318895413051    2.35965037977107    8.21808759244114
C         2.85722962625784    2.09310382920877    5.95313940560053
H         2.52815567784827    1.06762811455278    5.78271970524411
H         2.98181125472205    2.57910183366797    4.98582289006586
H         2.10799715503993    2.61994862716002    6.54482542033923
C         5.24746105492878    1.48321018542070    6.22869337534721
C         6.18990956229327    1.65373600247529    7.20557224833148
C         6.21915933204440    2.69012254287333    9.47289528400858
H         6.86774693024240    1.85383268308038    9.74226793896958
H         5.43155968747034    2.78809832399665   10.22713939051317
C         7.05305108502343    3.97287227538445    9.41553747357198
H         7.71829594069843    3.97283083618639   10.27845965087366
H         7.67220921185928    3.97278456021212    8.51788672487675
Cl        5.34468777764254    7.24767178320283    4.72209406604125
C         4.30213995564845    5.31155705819243    7.89391539694057
N         4.10072843432047    5.85061869887524    6.67706531598878
C         2.09949188566993    5.32479670456366    9.75403005809837
O         1.51465274623448    6.16460883926650   10.25587647974193
Cl        7.81061222117940    6.80892835895275    7.26738075922829
N         5.58332605654704    5.58617825158611    8.21806706424258
C         2.85717791330228    5.85259239221336    5.95333344840544
H         2.52812431003662    6.87806187056569    5.78283608852665
H         2.98166820460771    5.36649045576930    4.98605777025376
H         2.10797728769453    5.32583337976621    6.54514066257113
C         5.24748388992109    6.46231796527723    6.22855934116593
C         6.19001431660873    6.29186188314448    7.20537127097213
C         6.21943459903204    5.25580383575778    9.47282767991102
H         6.86825290305033    6.09200018446885    9.74193874962605
H         5.43195523026523    5.15812446095762   10.22722885695143

