76
CSD_code = VEJGEX | q = 0 | S = 0 | Stoichiometry = C35H35Cl2NP2Pd | MND = 4
Pd       -0.62031545196755    2.96432218701794    8.12309974017693
P        -2.68046325195666    1.02460596658066    7.48825663424493
P        -2.13805899443130    3.21349927387679    9.76351863014942
N        -2.01358244523372    2.21771802846065    6.69648325098183
C        -3.92782762357119    1.28421538683579    8.83305485659384
C        -5.06953546547655    0.49307929909746    8.91918951839200
H        -5.26847628045358   -0.24942491134512    8.16025505984856
C        -5.94063566390387    0.63061485667302    9.98557520611579
H        -6.82437024030295    0.01210984098784   10.03747855374050
C        -5.66615869079375    1.53830450091439   10.99595863560847
H        -6.33421782177791    1.62973565825285   11.83948889128521
C        -4.52456210744928    2.31619725862362   10.93074799072612
H        -4.28366477052748    2.99843093645252   11.73450428774700
C        -3.66016980490785    2.20986594077837    9.84521067163775
C        -2.56886864388936    3.00723763149253    5.60724564303597
H        -3.57157164853247    2.64242615006286    5.33617340605226
C        -2.67253563907053    4.45075628833937    6.09749398705633
H        -3.35271975087865    4.49971151421971    6.95050258030815
H        -3.04830616146198    5.11254763137165    5.32361049913008
H        -1.67310279119847    4.79049454199734    6.40941649414047
C        -1.65947904778198    2.86628579336700    4.36872973365301
H        -0.64927667549415    3.16317729144070    4.66659110581657
C        -2.13261821906461    3.75092047585336    3.21795271623317
H        -1.56516646843780    3.51373995416587    2.32130333914476
H        -1.98308922066760    4.80431784026475    3.43458018995611
H        -3.18813283517621    3.57923809999928    3.00876023102169
C        -1.61843450501104    1.41120410429166    3.90721391922684
H        -1.27393112106755    0.76317199462398    4.70990462120870
H        -0.93371919258857    1.30403029937408    3.07002814367153
H        -2.60730878015116    1.07568320359053    3.59288339874087
C        -3.50928976584220   -0.11726565391983    6.34427419382799
C        -4.70656983468581    0.25811195898280    5.74168931577390
H        -5.20900190717238    1.16147964097169    6.06436254923008
C        -5.25837572764287   -0.53174460085159    4.74985629718475
H        -6.18734205074241   -0.23930064133801    4.28264019973893
C        -4.61678566923218   -1.69461969513338    4.35385050312430
H        -5.04780830290624   -2.30871466943899    3.57749014039184
C        -3.42322446142028   -2.06870474043995    4.94971213126257
H        -2.92426718792047   -2.97435778682097    4.63887056715182
C        -2.86412053126697   -1.27867447600248    5.93790318839568
H        -1.92865298725065   -1.55909892127278    6.40315730567591
C        -1.34507301715568    0.13111253109292    8.33369438340771
C        -0.04022272290524    0.24128065458820    7.83397476400808
H         0.14172210941933    0.73306144253538    6.87860802970341
C         1.00614691088833   -0.34071712767968    8.53290767120415
H         2.01538076433818   -0.23821306622773    8.16308961086234
C         0.75698334658555   -1.04797709360654    9.70108088735726
H         1.57739056823177   -1.48472494718470   10.25060541598098
C        -0.54085268371865   -1.20713098259138   10.15853057999609
H        -0.73570723338963   -1.77729819301992   11.05521626761481
C        -1.59483235238285   -0.61402166165066    9.48099265787263
H        -2.60706495826062   -0.71695985840998    9.85043247858940
C        -2.75265505585245    4.91795569573500    9.53631386792952
C        -1.79806852118003    5.84554760107091    9.11048565685759
H        -0.76743902231742    5.52539084457820    8.94890017024887
C        -2.15853347851431    7.16306377229022    8.89692174868309
H        -1.41623950565893    7.87671094099056    8.57261216154135
C        -3.47150966980388    7.56439050548737    9.08952994630058
H        -3.75456688605962    8.59232274486190    8.91820934658518
C        -4.42397175051662    6.64392532138791    9.49264743320095
H        -5.44997499024202    6.95219244390490    9.63326527749211
C        -4.07116702062465    5.32343004783893    9.71574754147429
H        -4.82753678021215    4.61248649857227   10.01753421310487
C        -1.62890454292676    3.17762292426150   11.50894610221062
C        -0.93942995030326    2.04590924605772   11.93452872537249
H        -0.70978735358441    1.26657461187948   11.21789591506740
C        -0.52340611015581    1.94214013846870   13.24680251669784
H         0.01946457860687    1.06740211786090   13.57330431564131
C        -0.78947691785850    2.96894960434884   14.13966564702211
H        -0.45797958640055    2.89206601271794   15.16466969840364
C        -1.46499504089629    4.10024482665453   13.71545618095251
H        -1.65980291189013    4.90595140036027   14.40836026183430
C        -1.88551172698610    4.21064272059325   12.40115590187496
H        -2.39886867112113    5.10224908183741   12.06768081086191
Cl        0.96984967644247    3.23941743533737    6.52920460935864
Cl        0.90827824568797    3.54227431268396    9.67731087727571

