43
CSD_code = VEJGOH | q = 0 | S = 0 | Stoichiometry = C11H23B8Co | MND = 9
Co        6.61684235871408    9.95352851483603    1.83642532592913
C         8.55548428018461    9.42649471190813    1.14784732470419
H         9.00496269349210    8.83107268340664    1.93907645560840
C         8.40724534711330   10.94097478904415    1.39816851664020
H         8.68282431551852   11.36672956017866    2.36069789256800
C         7.24140629512658   11.54082833072958    0.58711649757320
H         6.76161258056901   12.43271964799935    0.98427990133552
B         6.43755832705028   10.33945593477220   -0.24082126854790
H         5.30034993793304   10.47366583346633   -0.52839213237615
B         7.34614111696485    8.88329616539016    0.14553555653564
H         6.99542327956317    7.75724571761690    0.19479940734793
B         9.73697810265514   10.44324086392376    0.40019000407218
H        10.80828670298383   10.46165453005415    0.88402799672049
B         8.83188776000421   11.89915055833454    0.01406470146755
H         9.24080289353754   12.98286449784889    0.21493887396299
B         7.54815863879542   11.45658984337996   -1.10380124380342
H         7.08116178514229   12.28874193951706   -1.79152770815540
B         7.65279011180889    9.72381815404980   -1.41633616573188
H         7.32316974612450    9.24833471929934   -2.44123017883001
B         9.01357396589182    9.10534945872730   -0.48211745726297
H         9.66298261786135    8.14803476796985   -0.69496834146596
B         9.15800046112097   10.70848087381884   -1.24308529888931
H         9.88733837368495   10.92541954520255   -2.13893200389511
C         6.35764590975262    9.22299955840219    3.67679896079080
C         5.88131270663149   10.57502882197317    3.60070262570084
C         4.84888653046828   10.16484686140466    2.65600496035023
C         5.32554470443292    8.79419697722655    2.73441608807341
C         7.29561778778955    8.49772497882855    4.57741241852914
H         6.76998452749362    8.19055762063178    5.48442756251075
H         8.13056926123430    9.13151955868270    4.87349938323887
H         7.68036685828605    7.60115992461752    4.09483824211958
C         6.12988806417923   11.81617508707362    4.38650012479509
H         5.46812276827858   11.84123384764237    5.25556399043350
H         5.92805894628332   12.70567291496348    3.79145413151566
H         7.15644368864011   11.85581728693136    4.74856990809293
C         3.58332672392293   10.78716952222131    2.18350506279425
H         2.80763075418755   10.66163581648274    2.94233460029681
H         3.24447102523800   10.31241963191644    1.26626632092012
H         3.71310432586871   11.85235239944431    2.00404009279629
C         4.72063846474017    7.47590768544241    2.40577975091946
H         4.00694727787771    7.19392242370929    3.18343160161522
H         5.48389821227053    6.70388903128133    2.34634573566788
H         4.19465977058340    7.52447840964951    1.45595178333128

