57
CSD_code = VEJGAU | q = 0 | S = 0 | Stoichiometry = C18H36CdN2 | MND = 2
Cd        4.69180627890773    8.61371766284542    1.52493444411992
N         2.83788100773114    7.63268962114259    1.64569577728670
C         1.85111287973509    8.23362775148165    0.77830911172190
C         0.52966044431776    7.43319722783285    0.79510941266229
H        -0.22892282750830    7.97558254209614    0.22758218306551
H         0.70640903523189    6.47572572146127    0.30107684403362
C         0.04305883412280    7.16028502025660    2.21041162894475
H        -0.85803027382461    6.54220711638378    2.17903647743588
H        -0.21948017551345    8.09273967116237    2.71214044728618
C         1.13931434829462    6.43188771207982    2.97317789757050
H         1.31776169494772    5.47121572250751    2.48611180929507
H         0.82825604222985    6.24092086340467    4.00208145060953
C         2.46754990029218    7.22147127922116    2.97886220338395
C         1.55075525025950    9.72652419179033    1.06751941964546
H         0.98806969034630    9.85464456405866    1.98702980207403
H         0.96671055786943   10.15370437204736    0.25377022824407
H         2.49117519911408   10.28727085120099    1.15260443879804
C         2.41213820785929    8.16409889827260   -0.65497426280702
H         3.26883049238776    8.84016441159948   -0.76334285305236
H         1.65055005748838    8.44939172859568   -1.37767025843315
H         2.73683877781949    7.14691601398100   -0.86961913199022
C         3.56631266703459    6.26099162763197    3.47330089144155
H         4.50308204676986    6.80501788038738    3.64530568836063
H         3.74115497155082    5.49137975334277    2.72322972023630
H         3.26940624077170    5.78410113178496    4.40478200151866
C         2.37434057509374    8.36958851772958    4.01659063280695
H         1.49170448813208    8.98199218068292    3.86191516639731
H         3.25958779219072    9.01445574553155    3.94384793836909
H         2.32726048762132    7.96001524585232    5.02436676768787
N         6.52636230373240    9.46567836900662    0.95713525290881
C         7.40579103131692    8.49443169256038    0.34850051838777
C         8.70238501395106    9.15905630560524   -0.16552327601214
H         9.39275317195441    8.38670290459669   -0.50985993261687
H         8.44493281362553    9.79169787142895   -1.01732939348362
C         9.36046629649046   10.02775044933001    0.89592133122126
H        10.23790808911179   10.52548536632619    0.47482694230156
H         9.70317999281555    9.41722230806882    1.73255565417990
C         8.35669153938144   11.06875637790297    1.36816070167296
H         8.09906338859776   11.70779611158628    0.52127088718777
H         8.79288278499332   11.69507424182895    2.14876976955442
C         7.05557354760002   10.42459102051498    1.89723231679742
C         6.66516595487809    7.92395164451015   -0.87622206276410
H         6.29539353091376    8.74279512150000   -1.49182244454882
H         5.81548260286524    7.30877214989989   -0.55643276360933
H         7.33389081593811    7.30894020683652   -1.47477206897314
C         7.76965424344443    7.28819779152703    1.25136659906248
H         8.44510841599518    7.57228829433989    2.05236101601921
H         8.25590692729076    6.51361395447489    0.66034157439294
H         6.85847881115557    6.86621786662251    1.69595014100405
C         6.01030444215828   11.54921668688572    2.02675557188540
H         5.11397659643770   11.18289884968862    2.54205991816008
H         5.72609886699872   11.89764968946887    1.03516688502851
H         6.41410069877822   12.38632139181049    2.59195662430133
C         7.30281102849218    9.87454129614925    3.32563914493162
H         8.17359869236729    9.22771786415088    3.36334427597745
H         6.43056525923724    9.30016142567373    3.66337168608131
H         7.46467844821136   10.69724772137406    4.02028925420763

