57
CSD_code = VEJGIB | q = 0 | S = 0 | Stoichiometry = C15H32B8CoN | MND = 9
Co       -0.61920690076508   12.69502039483518    2.90950151062834
N        -3.74534683979290   16.92026569183174    2.20087227412450
H        -3.13373250007040   17.72560126811392    2.18704854221121
C        -1.93080402932258   13.84985474760356    4.09713376178228
H        -1.97545910173816   13.47188973160626    5.11490331941574
B        -2.65895681927752   13.00478332979363    2.85177727101701
H        -3.19581258461318   11.96408694082980    2.99081018549375
C        -1.90874957907464   13.49853407957937    1.44600100762924
H        -1.93099177441142   12.87397571785591    0.55754488209787
B        -0.56819059439900   14.46082344250241    1.78978807327695
H         0.34333537391306   14.51165234376077    1.04238871686114
B        -0.57958962063632   14.68389952310120    3.54355359881496
H         0.31797300218451   14.92581256811732    4.27046279072112
B        -3.42361614697698   14.46097128220898    3.53107819692956
H        -4.37697937350690   14.43269057852084    4.21442442749604
B        -3.41332275516750   14.22348881682704    1.80653840004967
H        -4.36436282476999   14.06448344494375    1.14156531672546
B        -2.06931920058617   15.15633119298974    1.15580675097731
H        -2.20330556302051   15.61922511122813    0.08677422011602
B        -1.26818842513594   15.95519498663017    2.48598181726262
H        -0.85893076012344   17.05154898981504    2.34229489915743
B        -2.08774756402931   15.52781081967943    3.95728421945107
H        -2.22406323757322   16.23738348013455    4.88318861147014
C        -2.99054093605985   15.74460159055697    2.49039242572479
C        -0.24631076105097   10.78953197669146    2.45485095460961
C         0.92686017231586   11.64642671015550    2.30859092319103
C         0.94626134053611   11.85437117487960    3.74297663238419
C        -0.22757940436306   10.99554934550322    3.87516962009697
C        -0.95443389547055    9.84485234621528    1.54781516229119
H        -0.44321942720403    8.87937829000667    1.54618434483847
H        -0.96296212844355   10.22179274736173    0.52736309157715
H        -1.97932743538270    9.68473976747921    1.87555511241557
C         1.93206706056948   11.83339297045652    1.22712540732171
H         1.45118773224204   11.86930888618916    0.25233940948640
H         2.48959626449921   12.75395013051842    1.37941182450356
H         2.63712475183272   10.99881713595872    1.22944456748862
C         1.98238230625612   12.33028388500566    4.69979249067323
H         1.52939433129724   12.65394914782745    5.63399017747924
H         2.68054602053162   11.51980632885068    4.92211151805777
H         2.54234719147995   13.15890593450023    4.27396078049731
C        -0.91079474776788   10.35097811417446    5.03035852469489
H        -0.39956420575145    9.42140624345682    5.29110290508982
H        -0.89108520276130   11.00073556902592    5.90273409309081
H        -1.94415796030006   10.11239411317597    4.78774954887451
C        -5.03727440735866   17.30074628442900    2.76214199376545
C        -6.11132580292790   16.28005170321479    2.37726244796182
H        -5.94851201047531   15.32678616922302    2.86700351506087
H        -7.09155598440246   16.65260117082434    2.66456473688628
H        -6.09808646272963   16.12303657266127    1.30221870229784
C        -5.38515851323430   18.64024255369296    2.09620387973722
H        -6.37904676542980   18.96561805225081    2.39169329050069
H        -5.35873337656072   18.53427797641914    1.01479017439902
H        -4.67311341314971   19.41096137137480    2.38563846917649
C        -5.01506925175771   17.50738941343131    4.28676626918806
H        -4.84566932682881   16.57143417353404    4.80846210661875
H        -5.96546226505244   17.91844554347648    4.61885798252516
H        -4.22421566820416   18.20350812496857    4.56085412378630

