35
CSD_code = VEJGEZ | q = 0 | S = 0 | Stoichiometry = C16H14NiO4 | MND = 4
Ni       15.73708261101385    0.00014586055416    7.88130058749718
O        17.39936476229987   -0.79922649854265    8.01019420510807
O        16.44745692332417    1.45798810881962    6.98010612049889
C        20.04308475942882    1.21218472266896    6.47842284164976
H        20.15797008705470    2.15337609477847    5.95897710256761
C        19.69116074965207   -1.19999089985576    7.82003220392977
H        19.54594609958072   -2.13361216711668    8.34096129428791
C        18.53898547230020   -0.39495541557038    7.59527231262480
C        18.74605417572290    0.84262240044972    6.90199950592054
C        21.12761841735978    0.41393333118008    6.71175248243442
C        17.63240199986391    1.67265123141235    6.65652730503327
C        20.92448809456017   -0.80560592997981    7.39411197968302
H        21.78008288314062   -1.43993935819737    7.58015048283123
C        22.50851684623056    0.79120034030364    6.26923931501652
H        23.17927559160818    0.84731577007676    7.12544001932817
H        22.90535505683124    0.04259334689663    5.58477650036120
H        22.50554584598835    1.75427122889347    5.76640065071184
H        17.82736884876315    2.61338180909025    6.12046503757475
O        14.07479124889603    0.79948472664562    7.75234252041817
O        15.02670480090989   -1.45769322317272    8.78249996574852
C        11.43096815266336   -1.21220532134903    9.28357072597853
H        11.31606798562558   -2.15343438002503    9.80294525217408
C        11.78293652825811    1.20007131193718    7.94215494861352
H        11.92816964877506    2.13374119131101    7.42131813928925
C        12.93513407430894    0.39510953402875    8.16706297588418
C        12.72804805321061   -0.84250761862783    8.86026046080858
C        10.34640533157105   -0.41404994889059    9.05005102142323
C        13.84172962062197   -1.67244249309001    9.10591430835551
C        10.54956031650483    0.80555031932193    8.36780658762364
H         9.69394409263697    1.43981588506059    8.18163703746924
C         8.96544697475326   -0.79147628161022    9.49224053467660
H         8.29488900447196   -0.84766164452658    8.63589003967308
H         8.56837259953190   -0.04291705078170   10.17662099686107
H         8.96840864699142   -1.75454900738716    9.99507460984927
H        13.64676369554594   -2.61316997470563    9.64197992809466

