32
CSD_code = VEJHOK | q = 0 | S = 0 | Stoichiometry = C12H13Cl2HgN3S | MND = 5
Hg        6.43860607760936    8.53367635105946    7.79274586274865
Cl        8.14386686393802    8.91250992480080    6.33199097630151
Cl        5.95918195826754    8.47758592420578   10.06011494099207
S         3.70430839305729    9.49362457522883    7.04169349433966
N         6.84513192536415    6.01360603679127    8.08566436276344
N         5.01869123642695    6.90725089647966    6.21326623772084
N         7.53690770882701    5.27241682281109    8.92926670686471
H         8.15525781959246    5.71452184839406    9.59521408782152
C         7.94750006729924    2.92657885450499    9.63514106697126
H         7.79175446800020    3.14196235778933   10.69143989976480
H         9.02070065066233    2.91507272212758    9.44600519122558
H         7.54406906307125    1.94303881926557    9.41311003086818
C         7.28368843054817    3.95099743733218    8.79398791914025
C         6.35724970874722    3.84363718608421    7.77931359363930
H         5.91611354406696    2.94938574612823    7.39049247240540
C         6.10528844829337    5.16842824843726    7.36499513799044
C         5.20244997580344    5.65390557338684    6.35980077163214
H         4.66671761320698    4.90354349133038    5.77066885088955
C         4.23037775951511    7.45217537699404    5.21882043219263
C         4.12770861559715    6.88614544060568    3.94442234563963
H         4.66019328425999    5.97072146563545    3.73300712155441
C         3.40996792135658    7.51664939157181    2.94791497272114
H         3.35186013682043    7.06841716170909    1.96751752345852
C         2.77838748269680    8.72479560579565    3.19854158204407
H         2.22304337624301    9.22050954318070    2.41758033218026
C         2.87134855024982    9.30174859193912    4.45316948669972
H         2.39674517604583   10.24725519635341    4.66401037302767
C         3.58891329234594    8.67587100083202    5.45766206493807
C         2.84054142570144    8.31081742713624    8.12690994584061
H         1.78619942761406    8.31141294809465    7.86638427922023
H         2.98546183459080    8.67334530210599    9.13974863006504
H         3.27306776417993    7.32109273189492    8.02559930633401

