77
CSD_code = VEJJOK | q = 0 | S = 0 | Stoichiometry = C26H38N2O6P2S2Zn | MND = 4
Zn       -0.26636918563926   -0.32247914932516    4.55211652061920
P         0.44028766960948    1.62133148392719    6.49051379279657
S         1.57173405358915   -1.47151317457810    5.41168802450950
O        -0.11510185397341    2.28645877073494    7.80197038445234
O         0.95055879349431    2.87039162729693    5.65817932494507
O        -0.74296099763322    0.92034110648425    5.89586639681784
N         1.75917874533648    0.75881696452864    6.92388054512692
C         3.40502508137083   -0.86606015621930    7.32004297483699
C         2.20276717545173   -0.40749235976109    6.59976235244214
C         0.77666006497912    2.95319665943173    8.70059902394718
C         2.09445850918996    2.87506715199091    4.79083541432230
C         3.97598910343558   -0.04462357362756    8.29458247257784
C         3.99072121500603   -2.10328713158946    7.05782153976559
C         5.11554708124067   -2.50595590312681    7.75218311221552
C         5.67506534691538   -1.68325607885457    8.71638003347087
C         5.10079505186660   -0.45087370705307    8.98485393474701
C         0.90206499687230    2.11666458235336    9.96576985965637
C         3.33807549551714    3.22396383245362    5.59838000451889
C         0.21475481888114    4.34160678437822    8.97310211406836
C         1.81532180806529    3.89613587040575    3.69845754109551
H         2.21197588311115    1.88286946245543    4.34158589043862
H         6.55445984857920   -2.00041977164397    9.25732175480723
H         1.75759443378994    3.03866093282636    8.21948489296931
H         3.55254603304207   -2.74068972018590    6.30680067731660
H         3.52270530335767    0.91175298511559    8.50320847305953
H         5.55846530652991   -3.46763427748381    7.54006856771602
H         5.53203012214288    0.19471934812050    9.73602647306350
H        -0.07210045793461    2.01289028323423   10.43635079979567
H         4.20367514780094    3.25681701406130    4.94229940545368
H         1.58926642713907    2.58956689943405   10.66246866253791
H         3.21219975549282    4.19605705481571    6.07102049078375
H         3.50842189609559    2.47287151045052    6.36592865381006
H         1.27164725450951    1.12634100029404    9.71186525733911
H         1.63532853021594    4.87243164802097    4.14274938720820
H        -0.77889065704802    4.25614740429619    9.40507439065740
H         2.66542068107298    3.95530956118960    3.02467631310976
H         0.14212231408495    4.89980071357316    8.04323090551856
H         0.86122637017448    4.87722603471823    9.66303887426202
H         0.93715125873298    3.59282469634557    3.13527338655152
P        -0.97319509197621    1.62138434221576    2.61383198773566
S        -2.10432153673595   -1.47167768203930    3.69243261786233
O        -0.41790099139349    2.28649957435666    1.30232523342733
O        -1.48342578506448    2.87044882107779    3.44618465094003
O         0.21009733974663    0.92041220041688    3.20839892761941
N        -2.29214332366476    0.75888142798341    2.18060527219000
C        -3.93786476799181   -0.86610150273201    1.78435717794788
C        -2.73565661029535   -0.40746292389598    2.50468314438283
C        -1.30971049094955    2.95324817546442    0.40375528042617
C        -2.62730194665806    2.87512012295206    4.31356075271709
C        -4.50886496848935   -0.04467845971786    0.80983031980033
C        -4.52359021855715   -2.10329526021722    2.04666774738189
C        -5.64851372259354   -2.50592062681669    1.35244497320233
C        -6.20807647789991   -1.68322815869843    0.38827084291911
C        -5.63375947527516   -0.45089076935785    0.11968785045009
C        -1.43510665045555    2.11676435023292   -0.86144790310132
C        -3.87095315690819    3.22398558518914    3.50605408680460
C        -0.74787216730686    4.34169512690392    0.13129847531700
C        -2.34815222754030    3.89619472695316    5.40592783613078
H        -2.74479808224078    1.88292411257301    4.76281869360147
H        -7.08747226228093   -2.00041381808932   -0.15266123520264
H        -2.29063473642026    3.03865004564006    0.88490032769658
H        -4.08544914343089   -2.74064259315318    2.79776326507788
H        -4.05558062627331    0.91168870444908    0.60116878340088
H        -6.09145571637064   -3.46757316265047    1.56462623203711
H        -6.06499236313974    0.19467175117416   -0.63151448674163
H        -0.46094723708957    2.01305558035039   -1.33205669820076
H        -4.73653237892707    3.25684175590921    4.16216181635436
H        -2.12234613090754    2.58966681309292   -1.55810869914057
H        -3.74510442874216    4.19607199923322    3.03339447393440
H        -4.04131998626647    2.47287977961598    2.73852281070250
H        -1.80463606113298    1.12641218391228   -0.60757805972761
H        -2.16818446180180    4.87248872256198    4.96162270963901
H         0.24576600530749    4.25629856273559   -0.30070320479991
H        -3.19823388100417    3.95536081599434    6.07973213557442
H        -0.67523910577848    4.89984863818584    1.06119412654499
H        -1.39438396527120    4.87731966797128   -0.55859688988628
H        -1.46996159275393    3.59289499078110    5.96908600157599

