44
CSD_code = VEJNEE | q = 1 | S = 0 | Stoichiometry = C18H16N3NiO6(1+) | MND = 6
Ni        1.37818477856600    6.05317960122174   10.76894229181793
O         0.35501908293359    2.84031009944172   11.16610923687656
H         0.88406138332225    3.47587144865505   11.73334577516085
O         1.66165821137464    4.87117592981738   12.17858336350937
O         2.12469604354893    4.04597898459946   14.15418052093311
O         2.40207489700918    7.44145950802193   11.69895768291561
O         3.31266973003073    5.15790735436318    9.63667582105712
H         3.48098564261619    4.28817620733328   10.01361643168840
O        -0.60510933694261    6.77257754623107   11.95414409904126
H        -0.69935490923285    6.20070208947687   12.72319827356173
N         0.33099799999004    4.65510650816168    9.75912913048503
N         1.03493235539074    7.14539824927401    9.29681476620981
N         3.27639342262307    8.57297599081009   13.41922107002095
C         0.02140662429422    3.39012913965948   10.03053787098693
C        -0.69437863399204    2.59347515943815    9.09162417761280
H        -0.91723821307553    1.57919140917292    9.38000445093544
C        -1.06513773100620    3.11016558152279    7.88825336928518
H        -1.60551009380278    2.51369518497630    7.16934832807636
C        -0.73017811678992    4.44905386942973    7.57917739513465
C        -1.05543943605860    5.09459938214677    6.35522096228403
H        -1.59478461835211    4.52995386399121    5.61030610920108
C        -0.69992533047820    6.38503211234091    6.12018662377722
H        -0.95134959566572    6.86470982602387    5.18712875273185
C         0.01543134638092    7.13788152618999    7.09194508346249
C         0.42096130665207    8.47259213047176    6.91813146529610
H         0.18790413915320    8.98962957895425    5.99975649252497
C         1.11189107352269    9.09473083120994    7.92926395771316
H         1.43788902256272   10.11767091178331    7.83080811366178
C         1.40187245810560    8.39454269516055    9.10566028835466
H         1.94675051265960    8.87071809741896    9.90844113467538
C         0.35046901660483    6.51739558724368    8.31495963424470
C        -0.02816517650138    5.16904494037658    8.55747364486582
C         2.75134573313191    7.41418164951463   12.90260758708937
C         2.68871737429287    6.31356728045573   13.80840515280929
C         3.13819385786137    6.45040007329017   15.09813138042330
H         3.07345328172344    5.58779304008470   15.74620066497737
C         3.66422976683310    7.66747513299489   15.55696695149349
H         4.01568369015373    7.77249329989860   16.56861052114008
C         3.71770617955753    8.71538333768848   14.68746466530041
H         4.10570188297788    9.68468429575862   14.95968957413379
C         2.12790015320385    4.97656708544918   13.37601003635521
H         3.31823448768988    9.36214135334068   12.78245633899806
H         4.09369713929447    5.69367078060489    9.80316779866319
H        -1.43834140216607    6.74221132600108   11.47604301051518

