119
CSD_code = VEJRUA | q = 0 | S = 0 | Stoichiometry = C45H67FeN2P3Si | MND = 6
Fe        4.65720302777427    2.58731729049455   14.07985260539199
P         3.81310668600008    0.65250905035255   14.70927985458358
P         5.17341669635204    4.65260162243655   14.63816663575607
P         4.73141530892248    2.46355949826190   11.88724328067058
Si        2.53780432330996    3.27643839745338   14.39063897295693
N         6.24426298621616    2.07347587479264   14.02675992821888
N         7.30975929897483    1.72068536474510   13.95541830322143
C         4.97208131992819   -0.53023946855833   15.56357732221023
C         5.96762336018695   -1.22549108345140   14.63465876311158
C         6.79702251471292   -2.23146202930523   15.43142031524237
C         7.53365827956452   -1.53666859071423   16.57250494848345
C         6.54443072158072   -0.82397140720945   17.48999180130617
C         5.71866531542504    0.17765752522111   16.68971076102387
C         2.87193052263930   -0.55365720115187   13.62478012741671
C         2.14352352558377   -1.68636972505591   14.34562275350351
C         1.44203588483578   -2.58302839622542   13.32499712614362
C         0.45037884294620   -1.78547301338168   12.48452003451408
C         1.16389176098378   -0.63877372376501   11.77611414269496
C         1.86916312761726    0.24191329432897   12.80039273788372
C         2.58177509072787    0.98312387142714   16.00567621342070
C         2.25991748356145    0.12914613067203   17.05532297418743
C         1.30548346463531    0.50626049594652   17.98378384665682
C         0.66642475363241    1.72882041568140   17.86477163590939
C         0.98558783276868    2.57287926380203   16.81541474396386
C         1.94275863456841    2.21522530805395   15.87900078534318
C         0.91231345068592    3.47692012913518   13.38765333787269
C        -0.23200385595092    2.75184973813117   13.69013063371160
C        -1.40733183201367    2.92728384062908   12.98176886374458
C        -1.46446652445679    3.84681479120351   11.94884654163968
C        -0.34090587533071    4.59647677359289   11.64674558229920
C         0.82788647200059    4.40942524812550   12.36271593323851
C         2.57045413136047    4.98426725875573   15.24676834370579
C         1.45334091241624    5.69287060564355   15.65947596813774
C         1.58559263775121    6.82970649343663   16.43645538152287
C         2.84642845587855    7.25505992780963   16.82288719343265
C         3.97436575220462    6.59314989467057   16.37013772440695
C         3.83784463561590    5.47039077515656   15.55937433579114
C         5.48430733836132    5.97995680227518   13.35190396917449
C         4.22890916717474    6.05217356355497   12.49119288871774
C         4.42780399515589    6.96091086304123   11.28389163064285
C         4.82005369534737    8.35940956548097   11.75016115859885
C         6.07020868222230    8.29390407204007   12.62137003525213
C         5.85014504031478    7.38274967788701   13.82995526137101
C         6.64108884816110    4.90733305467712   15.74879721678155
C         6.51958216081590    4.03787698015090   16.99511457046374
C         7.62998547463100    4.37344816079287   17.98512496517919
C         8.99425611999760    4.17930979508167   17.32952658575848
C         9.11154812396667    5.03795974601355   16.07357354948726
C         8.00028977149879    4.69312666771061   15.08353230496380
C         5.12652310606531    0.76558166379522   11.29528034237898
C         6.17203207157994    3.28659765518688   11.09113779714201
C         3.45257234641557    2.91537605928468   10.63398713082002
H         4.33691495792706   -1.30752015034175   16.00974674135902
H         5.44562069339982   -1.74715692000811   13.82852168063510
H         6.63922184461678   -0.49032971393355   14.18847091385277
H         6.13897218980320   -3.00376025882462   15.83996634825887
H         7.51463913996305   -2.72131310517026   14.76919932087210
H         8.11429215827458   -2.26683224986645   17.14069109823264
H         8.22805997257107   -0.80382572022303   16.15571687323294
H         5.88152826602789   -1.55852219824983   17.95550359798762
H         7.08088936553958   -0.30627608516894   18.28811070170428
H         6.38741729383100    0.92369357801188   16.25967076385719
H         5.00907766108172    0.69946946729321   17.33835734656563
H         3.61968533096873   -0.99774475284478   12.95450414052834
H         2.83889244738962   -2.29606733729633   14.92487756116428
H         1.40017590194394   -1.26891831117804   15.02813684605443
H         2.18857253405169   -3.03909466087681   12.66888816205465
H         0.92229229126665   -3.38927014301968   13.84756624580255
H        -0.03008876352788   -2.43983058184451   11.75396150232194
H        -0.32756689247847   -1.37654329772456   13.13300621821995
H         1.89259806124292   -1.04592935120920   11.06900577862649
H         0.44609625445754   -0.04042149242139   11.21091562733923
H         1.12569817432199    0.67344181255911   13.47107090402619
H         2.37953305355430    1.07208126087942   12.30608549077628
H         2.74899780401553   -0.82663084661794   17.17569591110246
H         1.06534685265358   -0.15554727264636   18.80425135300116
H        -0.07518378835391    2.02417003595054   18.59367982958095
H         0.49111337807820    3.52812348834814   16.72815835598668
H        -0.21237994836382    2.04860552259110   14.51018853216278
H        -2.28376433461969    2.34833081577707   13.23894573341531
H        -2.37980826555723    3.98539218982213   11.39120284639182
H        -0.37748010599082    5.33030167464381   10.85313893443029
H         1.69062248726623    5.01318705838218   12.12858947951183
H         0.47404394509591    5.35522124286464   15.35201050568305
H         0.71015845893010    7.37741738912043   16.75603010568608
H         2.95452002726474    8.12088455072580   17.46128723670206
H         4.94559251410078    6.95814964534864   16.67247274936635
H         6.31828315756489    5.59134863702625   12.75043858814037
H         3.95929596629573    5.03712947976965   12.18279797659153
H         3.40652070052199    6.43863018196633   13.10043716536551
H         5.21635005205062    6.56113213492833   10.63943676943656
H         3.50799915797392    7.00672461679846   10.69575101563095
H         4.99916606709938    9.00642317233257   10.88870610595688
H         3.99872439885550    8.78853076401947   12.32860345606748
H         6.90680987979186    7.91492191611965   12.02782918620974
H         6.33463691712068    9.29612630508645   12.96590021017711
H         5.03763851130007    7.78704859367690   14.43672165283833
H         6.76083975676671    7.37112492286622   14.43067851026963
H         6.58421270025530    5.95883799527268   16.06291851352790
H         5.53588569618022    4.18326255077410   17.45298633160226
H         6.59781128390331    2.98857952680854   16.70912751752966
H         7.52706497905022    5.41112063826318   18.31418702757121
H         7.54431814755777    3.73431080891668   18.86652239248477
H         9.78838664133379    4.43785215470079   18.03361808225019
H         9.11507815985118    3.12845739927004   17.05707047159515
H         9.04237786663844    6.09445676715194   16.34851677767370
H        10.08473669506338    4.87875285575768   15.60383845787934
H         8.11106908118963    3.65256493341776   14.77756747279124
H         8.09585542857438    5.31796129736440   14.19189628105296
H         5.51709226291555    0.80688343607276   10.27734241074486
H         5.87454566043268    0.32442568281846   11.95371599658754
H         4.23110786547673    0.15016497968677   11.30693751841023
H         6.05639198507690    4.36644570042189   11.12140391010660
H         7.08212477991051    3.00879784136409   11.62313652955195
H         6.24429127009109    2.96664501606453   10.05043272197037
H         2.44884380582239    2.80776137274645   11.04081778180788
H         3.58768509948465    3.95113134881183   10.32668015457709
H         3.56180761542621    2.27171382020088    9.76104134682669
H         4.67550238438101    2.61848929855620   15.54198637036539

