46
CSD_code = VEJRUY | q = 1 | S = 0 | Stoichiometry = C17H26AgN2(1+) | MND = 2
Ag        3.63394209980856    2.61674323110820   16.20508195085528
N         4.72208158917589    0.58843188133436   17.00847978299243
C         4.99797597924728    1.01092640116603   18.38910990749174
H         5.68562225193853    1.86199721320141   18.35110979016997
H         5.48681411662314    0.20496450469646   18.95651142466221
C         3.74667514035526    1.45163875058918   19.17130576963357
H         3.12808349894118    0.58401458885107   19.41476261616481
H         4.07717294196970    1.89947555700220   20.11190337363595
C         2.91151501023893    2.40937248305335   18.45159294920484
C         2.10463372644003    3.13878476202557   17.90790647783725
C         0.99700055533910    3.90920348395210   17.34929872573501
H         1.03748502992902    4.93468226526943   17.72480776638953
H         0.06888311500262    3.46453683530749   17.71858412856933
C         0.99323373381344    3.96028591371848   15.80561378384958
H        -0.01606733798939    4.25502254507038   15.47866366838913
H         1.69185883854462    4.74018966418393   15.48644656197014
N         1.40365511117922    2.70682644396601   15.15426190285078
C         1.61079854181883    2.92099017423203   13.71494389079907
H         0.85731032808658    3.60795101262815   13.30602143882470
H         1.49944279108377    1.96046016490727   13.21388968186114
C         3.01376332143815    3.46699146258029   13.36683572846331
H         3.11082313522047    3.48928000833846   12.27848669252024
H         3.13634450215034    4.49214599437616   13.72732683237695
C         4.06401669535597    2.60900399214581   13.91338390710599
C         4.86389315742306    1.78598246114306   14.31376006124112
C         5.73172113952775    0.67577510982652   14.69519997121517
H         6.70658914308494    0.79433798651449   14.21677725184264
H         5.27768325722545   -0.23970439892461   14.30556739864088
C         5.95979019796297    0.55346890526210   16.21595012503802
H         6.52549804044585   -0.36931519731131   16.40417102771752
H         6.58294643789954    1.39701383664498   16.52638688255821
C         3.97889067272472   -0.68485314070845   16.96561849991298
H         4.11526772684388   -1.22072110230368   17.91233425711868
H         4.39147728353392   -1.31576001562672   16.17571649636924
C         2.47704910370577   -0.50202647146454   16.69827263734657
H         1.95952431104078   -1.41279325040327   17.00380623076403
H         2.09571313592822    0.32179114874215   17.30131119902843
C         2.18610053167401   -0.22710731970521   15.22220892589760
H         2.36074930517780   -1.14366088637318   14.65524427861104
H         2.88319286158311    0.53172391333428   14.86184302117706
C         0.76197030783557    0.24630846838290   14.92423016804060
H         0.60394841499255    0.18366497304316   13.84613060695385
H         0.04712362353057   -0.43866457920964   15.38388090735125
C         0.40839337629191    1.65480084714536   15.42172257111223
H        -0.56204742107599    1.93531994763083   14.98437382234127
H         0.28596067693236    1.60699943065693   16.50376490736879

