111
CSD_code = VEJSEL | q = 0 | S = 0 | Stoichiometry = C40H64CoN2P3Si | MND = 5
Co        5.86491586290504    5.99741223853942   14.77048374562612
P         6.60257446425755    7.84060646084131   13.52249630231495
P         5.66520978819571    3.94362084236336   13.80889171580245
P         4.85229593105175    6.57679693244262   16.74548193138396
Si        3.94843908511328    6.32743288121137   13.62794555573195
N         7.29024046620317    5.63363053302752   15.51323725931531
N         8.22116696977452    5.32154465698253   16.05924120077609
C         7.50409006146157    7.61441638832165   11.89288258992818
H         8.41055282931419    7.04747958511355   12.14904446462853
C         6.63483135042276    6.74991376547554   10.98578767255691
H         6.35312206304553    5.83998794200764   11.51698010735556
H         5.71426240559915    7.28914620338468   10.74535663232878
C         7.36378842248261    6.38746834451255    9.69751942908272
H         8.24964615053281    5.79319626952629    9.93615009953323
H         6.71047999460429    5.77912350392000    9.06809433210611
C         7.78688342213248    7.65095294955462    8.95699974457291
H         8.33551661390733    7.39114505326739    8.04892691940150
H         6.89711795100547    8.21269953994928    8.66321702777046
C         8.65619064630264    8.51688935402053    9.86192590129069
H         8.94702676474131    9.43037375332814    9.33766974683759
H         9.56962320283270    7.97219667716387   10.11487923511744
C         7.91217442499874    8.88252176315172   11.14645999425610
H         7.01939691927569    9.45560606600393   10.88848251596051
H         8.56370318059299    9.50840399336197   11.75822962979016
C         7.69337352983386    9.11308255833749   14.34721796960171
H         7.82164311409525    9.97032226666315   13.67773677542295
C         9.06658530200046    8.52848761911715   14.67329593643954
H         9.57772360756931    8.22703591040707   13.75633156871276
H         8.94591633850733    7.64088738055570   15.29686138689565
C         9.92080010702619    9.54965726793455   15.42032846000935
H        10.89427435963060    9.11337448502995   15.65367852315786
H        10.08909385425648   10.42231380512175   14.78321191123077
C         9.22530081077195    9.98823219266025   16.70465945435040
H         9.09696541264990    9.12121047731643   17.35686698273482
H         9.84039048538756   10.71903109275554   17.23430168727585
C         7.86052255965048   10.58867788232021   16.38338597120406
H         7.35384362745902   10.88500622942728   17.30521566545907
H         7.99502931252188   11.48708183574341   15.77504735726438
C         7.00234138882795    9.58522299087162   15.62077381843852
H         6.03881704435696   10.03529040602214   15.36400050140886
H         6.81283605021097    8.70944213848902   16.24853225961471
C         5.15384598236439    8.82031008279916   13.00322908858686
C         5.20423284648939   10.16023797192094   12.63530969123503
H         6.12937308773348   10.71654156971424   12.67855861377088
C         4.05396047311034   10.81119644396525   12.22508135831430
H         4.09728138487459   11.85459279320270   11.94496662616980
C         2.85063184203927   10.12783744730671   12.17839127972423
H         1.95240549881835   10.63667363208100   11.85693913911998
C         2.80120570615783    8.79804581943482   12.55822026617298
H         1.85728060798778    8.27444859647084   12.54002438185469
C         3.94098863919232    8.13053181568396   12.97362688136439
C         2.09982462364636    6.00037554031473   14.11600615670207
H         1.73788653941529    6.69516663989044   14.86563010338138
H         1.96572395406127    4.99228725660200   14.49396897653192
H         1.46980998288049    6.09376430844522   13.23866626674945
C         4.00869813142373    5.18990272283876   12.08316963084171
C         3.31478185359741    5.40794023239154   10.90622373021004
H         2.69850309110174    6.29084412518164   10.81152408427212
C         3.42376284209586    4.52242927306386    9.84781965440320
H         2.89181293276608    4.70731738273991    8.92493662928561
C         4.21970998471127    3.39593415288177    9.97252056304387
H         4.30493211460863    2.69916811366962    9.15016242854948
C         4.90957150797959    3.15630685962598   11.14849466214428
H         5.51499065018422    2.26761339242567   11.22987481705610
C         4.81150798663760    4.05475829115085   12.20320017742964
C         4.51866349234422    2.80300028105512   14.74161017778418
H         3.71284330973564    3.48345529218466   15.05205655740023
C         3.87675043232366    1.67042780068236   13.94424883884831
H         4.63251623784994    0.97333104733332   13.58223705373257
H         3.35430298999479    2.07799198466736   13.07596599542924
C         2.88529370918356    0.91756325584541   14.83037929973843
H         2.07756904524780    1.59289000733499   15.12378355446226
H         2.44212476369371    0.09351139795435   14.26678818466317
C         3.57319156222506    0.38159951455229   16.08275509816442
H         2.85030036173432   -0.15029318795327   16.70510404172422
H         4.35116581607956   -0.32935872901399   15.79387891627481
C         4.19970300488534    1.52583004441427   16.87455920889185
H         4.69930549398613    1.13607138692089   17.76464182713526
H         3.40953192098982    2.20556461965240   17.20308577070655
C         5.20167785210221    2.27866631443547   16.00369459181966
H         5.63942284520899    3.11788584986753   16.55322882451908
H         6.01417006913425    1.59996214109078   15.73999727176674
C         7.27126130295692    3.00492932947523   13.58966222280316
H         7.70658274158795    3.08582791589730   14.59960925882374
C         7.33349774867563    1.53101780352165   13.19085119652968
H         6.72631015503956    0.91505288981704   13.85454486799265
H         6.97514036695092    1.38756316404428   12.17146168811706
C         8.78475526709630    1.05274568867183   13.26124352919474
H         9.15116915971326    1.15388701218789   14.28586095942336
H         8.83382291884437   -0.00507767150169   12.99104144900769
C         9.66954240436794    1.87012917811366   12.32564872761055
H         9.33457602302375    1.72886703221029   11.29480041662415
H        10.70260110974902    1.52210868274836   12.39184762542346
C         9.59176796523234    3.35054255437745   12.68462096976169
H         9.99336934443629    3.50397523165517   13.68896931599597
H        10.19759077888788    3.93577819154495   11.98880120200391
C         8.14561058856267    3.83141095053136   12.64528595313720
H         8.09874875192003    4.88298845858049   12.94473573072084
H         7.75668234453753    3.75306238925379   11.62636743791948
C         3.60489748873408    5.41405422584791   17.42906137084831
H         4.07729759419184    4.45318392296580   17.61803076834980
H         2.80268759966252    5.28241265978482   16.70871324365251
H         3.19875542718299    5.80605064097483   18.36144130327397
C         3.88208044337402    8.13041347478154   16.89738180000646
H         4.52934508680904    8.99050424427709   16.75275585790882
H         3.41561214698591    8.18776914939361   17.88051290038506
H         3.11730661307842    8.14416776642600   16.12458623748597
C         5.91342224901318    6.71485815871345   18.24524541464336
H         6.66794107052705    7.48643317857141   18.10553515149554
H         6.42324578920834    5.76508181360525   18.40353916663028
H         5.30871847343957    6.95421624266373   19.11955383160322

