61
CSD_code = VEJTEK | q = 1 | S = 0 | Stoichiometry = C26H32AgN2(1+) | MND = 2
Ag        4.26933602598666    7.72694055099591    3.40202520925726
N         4.62807181440242    9.43207771974924    1.24088821513172
N         3.59376239239519    5.69087159097467    5.16702333405749
C         3.52045516318280    9.08333569085042    0.34511895543318
H         3.65248023730353    9.55367986073707   -0.64185823818489
H         2.59897895074680    9.46313769695652    0.78214974554012
C         3.35119120629241    7.57353804374585    0.14813477891962
H         2.43744217324881    7.40887262044578   -0.43052664351012
H         4.18104609712221    7.15550345534533   -0.42754096903575
C         3.23139671664264    6.81078408555605    1.38641814568885
C         3.02206766922306    5.97958041736452    2.24945264033912
C         2.64847879746694    4.80052460254466    3.02442128557531
H         3.40974036914762    4.03290782311717    2.86258352838760
H         1.70896623834714    4.42024004375231    2.61225399483360
C         2.43740530110746    5.06352523251276    4.51858305103906
H         1.58698636657559    5.73589676915125    4.61729599804978
H         2.18234372750304    4.11161669769035    5.00994131143440
C         5.89934746358127    9.21918643508423    0.53270303958978
H         6.04731058762772   10.00057436221261   -0.22871942524523
H         5.84100608061984    8.25901257374520    0.02056549772171
C         7.12842091546942    9.17480973877451    1.44957722723881
H         7.98612085956004    8.88914791705405    0.83736690451452
H         7.33683430240355   10.15675148697562    1.87365303928748
C         6.91366700083736    8.17083026184275    2.54142032436337
C         6.84070547286068    6.80981460961913    2.24426001374041
H         7.03522000988357    6.47154787617535    1.23672711387347
C         6.58116058142972    5.88205327062302    3.23632794589357
H         6.57748336791838    4.82948096526951    2.99258022578880
C         6.38504044949643    6.28518236134676    4.55748421050093
C         6.50321683003987    7.63772561226691    4.86427028433729
H         6.46874642677525    7.95724862626955    5.89685154677812
C         6.76511333097666    8.57111522354586    3.86612724581515
H         6.93107094122157    9.60551974406449    4.13407895412181
C         6.03975294377914    5.27952984491225    5.61395299897318
H         6.07820469384947    5.74032509598738    6.60074618250593
H         6.75944153989562    4.45854807506354    5.60321195145086
C         4.65317779666479    4.68479762993140    5.33700516686250
H         4.72352248556114    4.10962387491226    4.41422945264253
H         4.39169841807760    3.98857912085096    6.14867938413423
C         4.54427055740919   10.84955214758717    1.62300310045293
H         4.60978890437709   11.48900838225487    0.72842474313800
H         5.41157472196041   11.05965287747285    2.24930641837629
C         3.27922472161758   11.24332702979054    2.40181815481467
H         3.46776428269825   12.22003721039168    2.85296779860708
H         2.42943707491752   11.35876669901720    1.72839249390014
C         2.95632264277056   10.24248913747510    3.47107698231167
C         1.80456546894352    9.46475564798537    3.41381928187440
H         1.08189566562346    9.62580508810797    2.62653856891861
C         1.53549754267146    8.51995448524639    4.39170422274772
H         0.61022331279013    7.96344166908084    4.34477022429881
C         2.40907308892773    8.32745314483206    5.45670382702020
C         3.54097839450164    9.14012719028273    5.54379847770413
H         4.16268583953538    9.09176472994348    6.42698573005692
C         3.81145175201229   10.08474142817044    4.56329931953962
H         4.64240999002484   10.76482193895795    4.68955902588714
C         2.14542050522342    7.28956136105117    6.50645520315615
H         1.15183944051061    6.86231302823327    6.36795321086484
H         2.16226359877767    7.75129373810363    7.49627670847390
C         3.21915314389545    6.19067554933579    6.49821440543052
H         4.12563226655493    6.59301294254633    6.95113951974355
H         2.86531533903314    5.36040696611698    7.12982895483707

