91
CSD_code = VEJVUC | q = 0 | S = 0 | Stoichiometry = C36H32CdN4O18 | MND = 6
Cd        0.47226818845906   11.72678265015786    2.47883575817843
O         4.48540781355932   15.81717582068333    6.67193973296587
O         3.55640543806051   14.92416247705574    8.48735203309238
H         4.45324373168690   15.04244673032802    8.83842575126431
O        -1.23119268312441   13.69210875669260    8.54723234321116
O        -2.43751217217082   14.11278250515096    6.72430212977014
H        -3.14738683489431   13.73309343157729    7.26534501535079
O         2.51241499193451   14.65637626102625    2.18693817019266
H         1.56423030770147   14.42923375286857    2.46434410621538
O         3.87817976356287   16.37492486504698    1.93905500167166
O         0.16362036429541   13.78428536721834    2.76151920988803
O        -1.97597427499890   14.05076899536443    2.23792289839067
O         4.13052412925314    9.38212937218504    5.44372308823462
O         3.38209703813199    9.05412998187548    7.51514852307003
H         4.25650055992679    9.40409537908723    7.74732426203702
O        -1.48453830821236    8.04119312088753    8.14260943797025
O        -2.34394707796024    6.67460977890195    6.60700276142108
H        -3.06317149796741    6.59420233996567    7.25301509307046
O         2.63819383967106    9.67690754401221    1.10797486940565
O         0.64793084901706    9.70440001791867    2.08036870778664
O        -3.02520001077728    6.97172937446407    2.24226508796649
O        -1.74050636967448    8.76693629251438    2.17403071580479
H        -0.76510639261442    9.04216814099873    2.13066610329629
O        -1.38719136257701   11.64105247352473    1.21281981740418
H        -2.01404853087377   10.92796841820623    1.38542137533979
H        -1.80594895751062   12.48371801132076    1.51301440988954
O         1.77601546024681   12.21181672127057    0.74189959514107
H         2.43230106834850   12.90212016898148    0.90800127488891
H         2.25653779004807   11.34963557674296    0.72125779962701
N         2.10496043080376   11.86671675297914    4.00584663541305
N        -0.53533345770660   11.23710949476773    4.42613942515015
C         3.50427313484030   15.39323887293238    7.22925605062331
C        -1.29339973891346   14.13374015801696    7.42580398271656
C         2.15509808594732   15.31872783655440    6.62786082377920
C         1.07716981668182   14.79878730580341    7.33166585048371
H         1.17804554886213   14.45501281922773    8.34675531905122
C        -0.15588956936357   14.72599467218684    6.69142490818994
C        -0.31881136490356   15.19777210965370    5.39650541671103
H        -1.29629599627641   15.11785493582990    4.95360980308731
C         0.75497201765131   15.76105888495679    4.68971359667564
C         2.00288251338027   15.78452822631989    5.32667471237698
H         2.88707347184465   16.15884326068845    4.83577953097362
N         0.57929760064541   16.27919188910259    3.43153472067993
C         1.68237475117692   16.89012805339959    2.73469663044160
H         2.15059270696256   17.66076498302527    3.35673000903610
H         1.30395501390649   17.39457224788475    1.84130503003176
C         2.80426801838410   15.94379655995895    2.25658946356480
C        -0.64786064058511   16.00819914594995    2.71810978212040
H        -0.59236876806283   16.44032311244030    1.71718941321451
H        -1.51332859089564   16.45397131694294    3.21914943272441
C        -0.87336826697793   14.48452000423519    2.55102195399363
C         3.36808992744189   12.17637175773262    3.80797728315759
H         3.70952211696570   12.20579649998642    2.78151784527266
C         4.26498262868531   12.44304395245024    4.84659181192923
H         5.28492326060230   12.70723444732002    4.62124292033980
C         3.82096702971081   12.34911844761939    6.14021811082137
H         4.48419518899719   12.52865098233901    6.97415191081059
C         2.48582801228356   11.98677806268924    6.38541501954144
C         1.97708643344819   11.81134865799697    7.70406343981044
H         2.64429629808769   11.98710169529897    8.53432739825560
C         0.69744291805054   11.42462813329801    7.91065722374895
H         0.30773364234863   11.27917201737699    8.90551215174014
C        -0.18419364603346   11.22001676926867    6.81269903854843
C        -1.52582242286533   10.85008400866755    7.00100788893604
H        -1.89380089454676   10.69973608649845    8.00454680268636
C        -2.33023863929116   10.68364527592040    5.90098214510302
H        -3.36573973870337   10.39820914960900    5.99984345877864
C        -1.78792849737255   10.88969170580807    4.62890779872165
H        -2.40520148258294   10.75838746431798    3.74941191598691
C         0.27338993904884   11.40371563380131    5.48728599727967
C         1.64910073734378   11.76837647256497    5.26691914736426
C         3.25502769459325    8.99862281460062    6.18139321635112
C        -1.39515945895470    7.49693654148833    7.06878682957562
C         1.96683882343942    8.42786786057440    5.73692935168049
C         0.91641246143470    8.22930945562425    6.62402286482536
H         1.00079606149092    8.49370482439168    7.66449186777092
C        -0.25983908594463    7.67199081866440    6.13565655016891
C        -0.38381577911701    7.30780038709639    4.80130743648357
H        -1.31939778819879    6.87859506948679    4.48476045189439
C         0.66837058588495    7.51076500049349    3.89557454116218
C         1.84310090001740    8.09119327258857    4.39521040584832
H         2.69410351923302    8.28872501440994    3.76453851077863
N         0.55828617452155    7.14370780512870    2.57860285927475
C         1.56947161988631    7.57243761669456    1.63844227160710
H         1.31243930678031    7.22172308348537    0.63733684146692
H         2.55035296632668    7.15684296815159    1.88848373635960
C         1.66068322808974    9.11790339140655    1.59002814830380
C        -0.67165960116588    6.57021420865490    2.09066514587661
H        -0.89785562162378    5.63481780280589    2.61613160050694
H        -0.55286589705391    6.32147198666219    1.03291680718176
C        -1.92947649331080    7.46155589017822    2.18622369552386

