35
CSD_code = VEJVEL | q = 1 | S = 0 | Stoichiometry = C6H18CoN6O4(1+) | MND = 6
Co        2.45049127250368    9.05506596250763    1.75089675726075
N         2.03607240906303    9.05513461140669   -0.33896670225439
N         0.33320458407926    9.05513613518018    1.82257665580013
N         2.39467905438905    6.97640860217511    1.45093317073495
N         2.51740138889266    9.05531386051655    3.50710796368717
N         4.25831158450170    9.05499111931300    1.73570641029378
C         2.68312905193179    7.82379557289092   -0.82221659523184
C         2.19084807238256    6.65044747498505    0.02726156445912
C         0.60272706514948    9.05506676025322   -0.69566997608599
C        -0.36406035326020    9.05507738683566    0.51876466733304
O         2.47788300759354    7.96955554137577    4.01501774317538
O         4.80584197737990    7.98069350277487    1.72777692460399
H         3.32685338867257    6.65356236224670    1.72713171174048
H         1.74788550354207    6.44057733537783    2.02771445005403
H         0.02999561016506    8.24606398553492    2.36180139484918
H         2.47131427039164    7.64589276801617   -1.88304173076819
H         3.76475663553362    7.91807564470019   -0.70810142460147
H         1.12771512486961    6.47910584944660   -0.14883748048822
H         2.73093667407556    5.74357501397828   -0.25696463779454
H         0.38625159518814    8.18261568321898   -1.31355833635994
H        -1.00942225416554    8.17756656697535    0.45186033574863
N         2.39485668502519   11.13371264711196    1.45101140337361
C         2.68299852074752   10.28655183125482   -0.82220370652216
H         0.03001829388668    9.86426676632036    2.36172315698521
O         2.47802794632828   10.14121197497059    4.01471138332873
O         4.80583075050874   10.12925342934338    1.72739318361696
H         0.38618755109327    9.92746822185898   -1.31360397580587
H        -1.00944814984937    9.93256372340557    0.45180098263010
C         2.19078715491924   11.45981596850735    0.02741808348840
H         3.32710020282561   11.45650454438645    1.72709914003912
H         1.74819246316707   11.66951841216853    2.02795331666233
H         2.47106198618319   10.46452148024106   -1.88298915958606
H         3.76463727308033   10.19233281281418   -0.70819623460499
H         1.12761385691939   11.63113296548086   -0.14849038261139
H         2.73081980228564   12.36672348242622   -0.25682005715005

