36
CSD_code = VEJVEN | q = 0 | S = 0 | Stoichiometry = C15H16Cl2N2Pd | MND = 4
Pd        3.07830540998778    5.81565637753612    1.82021994619012
Cl        1.50383915992174    7.41731149232440    2.02627691782387
Cl        4.75522772248715    7.00518437621447    2.67810528267105
N         5.01249695710387    4.00683497140530    2.84153539060309
H         5.53000515495384    4.87295438724674    3.04379190235244
N         1.58980094198201    4.57582153139450    0.93698139646153
H         0.65541586227192    4.69733174174475    1.33523792077342
H         1.56470232241541    4.95761328134483   -0.01407257934639
C         4.06864784128377    4.14354626278483    1.93300438336587
C         3.35201991045531    2.98223340834353    1.41905271265476
C         3.86859713446807    1.68404814426546    1.34479428984339
H         4.88547563690304    1.49282449248214    1.64919768104422
C         3.08336146603514    0.64987909355286    0.87586462885932
H         3.48975328315212   -0.34857236417629    0.82514914235266
C         1.77242786362315    0.87998973270723    0.48453876976995
H         1.15870527663120    0.06243514337712    0.13948084975910
C         1.25427116157354    2.16508607368924    0.51329431050947
H         0.24187834759926    2.35234647564466    0.18411680353081
C         2.04638123303253    3.21473036012504    0.94599493642104
C         5.20100351768094    2.93085528055160    3.73950970259058
C         6.47680531430080    2.37185573043894    3.85978329047759
C         6.66480711623422    1.33122407941225    4.75488253796480
H         7.64216958878934    0.88251160848253    4.85108011458852
C         5.61130027280439    0.86934809494491    5.52518966249628
H         5.76680755993510    0.05550659449498    6.21690544093089
C         4.36632533674621    1.46102812960261    5.42612832169028
H         3.55643307083145    1.11683020852977    6.05182793358717
C         4.13681014770397    2.50760570692255    4.54097556492221
C         7.59786172696352    2.90568751891879    3.02285031038317
H         8.48422119323570    2.28606278580655    3.12695281882450
H         7.84836448738502    3.92006326242755    3.33394132365687
H         7.31641544765257    2.94525100832767    1.97134636400607
C         2.78791085993152    3.16295143513026    4.49542818598558
H         2.84189197452017    4.20917336332140    4.15605061540019
H         2.34228893942558    3.15197320172529    5.48754853192098
H         2.12197076046275    2.61841700885075    3.82383459460613

