50
CSD_code = VEJVAK | q = 0 | S = 0 | Stoichiometry = C26H19N3OPt | MND = 4
Pt        1.91164898042942    5.87598626953544    4.92844526907482
O         0.00129520312618    5.83572751545890    5.49616457848223
N         2.31155985875916    6.78706227060200    6.76258141967084
N         3.77101292439788    5.68690770204225    4.20569360139583
N         3.83923286607762    5.25677021865459    2.93744109815765
C        -0.45386345200514    5.81288268547713    6.69311379704107
C        -1.84672604641219    5.48791082704479    6.82053530197905
H        -2.37531843023994    5.29112043563857    5.89963647870130
C        -2.46553706665616    5.42506885154508    8.01965394492152
H        -3.51628133998470    5.17792146521539    8.08241613591688
C        -1.75449519862285    5.65502036969010    9.22787471192002
C        -2.39291175712222    5.52885804171266   10.47090527110437
H        -3.44280743705585    5.27208974625082   10.48782800163703
C        -1.70317797256486    5.71685485198596   11.64057476089220
H        -2.19880400466150    5.61860871818538   12.59483274392706
C        -0.34255654747493    6.02114405546621   11.58819591033359
H         0.21216959764837    6.14560716376257   12.50719984716831
C         0.30093623159780    6.15277557980471   10.38244883924911
H         1.36074812281783    6.35745847217959   10.38965763001306
C        -0.38280143666918    5.99977164327614    9.16278601584469
C         0.26082203913822    6.13848526831911    7.88185757443622
C         1.54132487668836    6.73297520096066    7.80786698027563
H         1.86989262029690    7.28268272506641    8.69127702179458
C         3.46130520782271    7.57790382667144    6.81643544525158
C         4.37067137696784    7.51412597245099    7.87115067683822
H         4.20101863407764    6.82223170986297    8.68414954927149
C         5.50765613792056    8.30163646615373    7.85157648903317
H         6.21438994973032    8.23699191969813    8.66610679049952
C         5.74449985500641    9.16586296353693    6.79583320754231
H         6.63272907356514    9.77924019575893    6.78832360302967
C         4.83931836516314    9.23842014601665    5.74768723426662
H         5.01887926900059    9.91349820801855    4.92430689606534
C         3.70633287043747    8.45052665056922    5.75405885048436
H         2.98299398840254    8.49804630689144    4.94553233703903
C         1.49481581746010    5.15859943384525    3.10405633946731
C         0.26015157777046    4.88367314012414    2.52543754298704
H        -0.63529903315389    4.99849249320718    3.11855107778727
C         0.16361207422763    4.46000093214229    1.20883002054955
H        -0.80601289669133    4.24762743668416    0.78188746428154
C         1.30018738774181    4.30550668341208    0.43076509221520
H         1.21709571125752    3.97781650300646   -0.59476921191150
C         2.54785199609847    4.57056255982219    0.96668455827165
H         3.43629276766436    4.45489912220229    0.36378828087380
C         2.62461561277899    4.98951438399022    2.28636406010943
C         5.11680262082577    5.08583155564967    2.56105980057077
H         5.38763944495712    4.74810385137616    1.58222634111453
C         5.90895092627003    5.41378667875365    3.64076262328125
H         6.97733493322147    5.39168600027093    3.69415897362439
C         5.02139752713268    5.77956488890435    4.65108141851995
H         5.24900617284137    6.09805989310107    5.64866760499878

