50
CSD_code = VEJVEO | q = 0 | S = 0 | Stoichiometry = C26H19N3OPt | MND = 4
Pt        4.53223803078458   15.30506056323106    5.50501795960765
O         5.07514977772902   13.82689185997887    6.88843353146909
N         5.88207410229714   14.53235944080908    4.27693916873473
N         3.10220680569469   15.95839332091424    6.69131206693255
N         2.37216434681296   16.97682037923128    6.23080675147598
C         7.21429209603191   13.31489114493808    5.94042046194318
C         6.21852668923658   13.28033675509450    6.96405601298655
C         6.50396682637915   12.51677409669495    8.14782039976322
H         5.71849740262303   12.46835716921472    8.88821257770003
C         7.68954790755961   11.89878478512205    8.33591636807052
H         7.87651898883395   11.33380250641309    9.23902083582527
C         8.73062391942194   11.98982665165830    7.37238162485780
C         9.97733027898759   11.39200646628166    7.60818253439457
H        10.12145733799492   10.84352923758415    8.52856795358221
C        10.99769065582019   11.50594911325304    6.69947846059591
H        11.95564206664423   11.04402745946555    6.88563919121732
C        10.79256036127470   12.24387577206958    5.53358135505137
H        11.60082519766682   12.35876202168656    4.82569555429992
C         9.57919093128860   12.83571020378010    5.28205629331241
H         9.47505248311171   13.42603588904149    4.38452686703349
C         8.50020172960843   12.70993740533271    6.17527830145170
C         6.90237185322144   13.80333466837039    4.65352692900132
H         7.54805739280061   13.44774059425150    3.85101853223364
C         5.68527168251173   14.68596261893008    2.89192829549798
C         4.40279236992091   14.48178143390179    2.38279795528730
H         3.61058059061820   14.20572641026653    3.07187388408498
C         4.15784449838412   14.62722943073571    1.03222883075484
H         3.16176501775142   14.46854762775163    0.64746735280581
C         5.18674652883732   14.97597395407922    0.17126457618997
H         4.99396345135038   15.09457347960875   -0.88418194513919
C         6.46232817273472   15.17764481200195    0.66975641922172
H         7.26501401240544   15.45911628757309    0.00417074459074
C         6.71735409066214   15.02948208651786    2.02140388238285
H         7.70773675051838   15.22089486212149    2.40903397271896
C         2.56533011904761   15.56268329159276    7.83654167045912
H         2.98713838358935   14.74918582126435    8.39350771850780
C         1.45482765639446   16.35817352800439    8.12348991130363
H         0.80993501581320   16.29068296246160    8.97489643695884
C         1.36402813344398   17.25192800158703    7.07701600632121
H         0.65660124840278   18.03494007053970    6.89860861956493
C         2.81409764680207   17.56487319873480    5.03492778149623
C         2.21564098674098   18.69924200412803    4.50915649488341
H         1.35489805804760   19.14329203997862    4.98632231924592
C         2.74753875802936   19.26214020123895    3.36364219270233
H         2.29386236841504   20.14274504806330    2.93467373139554
C         3.87320277904372   18.69932535970450    2.78727894239267
H         4.30632523134138   19.15184681282802    1.90703921256116
C         4.45225020870954   17.55965353604647    3.32414413071915
H         5.33255946309633   17.16307291609056    2.84163286308936
C         3.93147959557113   16.92947469983972    4.45308826842969

