85
CSD_code = VEJWAJ | q = 0 | S = 0 | Stoichiometry = C36H28N4O16Zn | MND = 6
Zn       -1.40284772875840    3.64822044920221    3.66752978029883
O         0.10826782260344    3.43875708858083    2.24258227661048
O         0.07951550252065    2.32882113790996    4.11851847605092
O         1.77908867776360    2.21206257191982    6.12380653748368
O         3.90324567537914    2.23162501751267    6.71989249584779
O        -1.29751493060212   -1.51898853331532    1.09769554695050
O        -0.93819208795620   -3.61416940701503    1.78349249706860
O         0.67092213287608   -3.92084179629875    6.56429144342358
O         2.53821855962584   -2.76926440309000    6.92450049183203
N         2.37594347191883    1.00750446885295    3.65617750566059
N        -2.25514003329272    5.21665218071102    2.61689387831520
C         1.70359787304092   -0.19102629166210    3.78160171286784
C         1.91291679316884   -1.01665478878260    4.89224794658481
C         1.31478656655445   -2.26841671128332    4.97348848313704
C         0.51629996074888   -2.74372846945098    3.93852046574877
C         0.24049432354808   -1.89781932329702    2.87351510472784
C         0.79968380152677   -0.62966806878492    2.80731513547041
C         1.96396830215489    1.97812611924139    2.67748800228814
C         0.61758022550392    2.62024002721887    3.01912587167485
C         3.44802725031283    1.35098358818866    4.55096560366015
C         3.05598491552023    1.96860226310293    5.90867363024211
C         1.45757404911359   -3.06955725450216    6.20437050043677
C        -0.73393429640005   -2.30388224567589    1.82304767593849
C        -3.05132480569607    5.18839277526962    1.57196569885413
C        -3.51532785806158    6.35304076097822    0.94966049524309
C        -3.12991584871926    7.57545613443411    1.44283454717572
C        -2.26871822309480    7.62662014081124    2.55328492541518
C        -1.81589299139289    8.84731774326020    3.13197728045706
C        -1.84786281542216    6.39745880102875    3.10562442776983
H         2.50304026488599   -0.68624745841667    5.73074660781196
H         0.09585668333486   -3.73480785376617    3.97446330764769
H         0.49942333501992   -0.00836986030613    1.97992868853883
H        -1.71988820976556   -3.83197899068815    1.22120191049632
H         2.70182518034407    2.78251987677524    2.62312985181008
H         1.89401664965752    1.54065918786045    1.67630194322903
H         2.55168953512044   -3.29113846378612    7.74264692385394
H         4.06292457648020    0.46954532187125    4.76129349949219
H         4.10650413025925    2.07714485290978    4.06354299525722
H        -3.33886787027169    4.21246284567665    1.20624670913037
H        -4.16992942929462    6.27262155814192    0.09679102804116
H        -3.47322065460192    8.49583296661038    0.99306280145888
H        -2.15276517648090    9.77447452184932    2.69274952716428
H         1.16579535280845    2.01176641997146    5.36172104528563
O        -2.91404034860742    3.43890796248041    5.09244762477106
O        -2.88529611628026    2.32911278239128    3.21643192392085
O        -4.58502772378816    2.21216925262565    1.21128756872219
O        -6.70907823971126    2.22975393835231    0.61488137053428
O        -1.50932952506883   -1.51899912721815    6.23958765944351
O        -1.86782230993577   -3.61427751725121    5.55373903701190
O        -3.47568516130092   -3.92139744938722    0.77211738545234
O        -5.34253799708815   -2.76941578816919    0.41118969577546
N        -5.18131979127225    1.00727557501056    3.67895949309617
N        -0.55017735523542    5.21606934415584    4.71859693864848
C        -4.50897427151680   -0.19130966187437    3.55416656970819
C        -4.71781796157272   -1.01706972862104    2.44355469018454
C        -4.11997547196175   -2.26900421209964    2.36283095009964
C        -3.32215809933243   -2.74432085864589    3.39831952790575
C        -3.04658381896408   -1.89818398026180    4.46322834792164
C        -3.60557194318981   -0.62991556885947    4.52895138453086
C        -4.76970737460117    1.97824155037761    4.65745058948281
C        -3.42334288626076    2.62042663693330    4.31586551421324
C        -6.25354119455293    1.35011770419095    2.78409094264357
C        -5.86176430411099    1.96771524940870    1.42628581354295
C        -4.26228598883231   -3.06993194361815    1.13176063775163
C        -2.07240906563888   -2.30402890830191    5.51404269631452
C         0.24605743705474    5.18723146916931    5.76346957496178
C         0.71038666740241    6.35152859523168    6.38618347488613
C         0.32517417700377    7.57421760740849    5.89353718672796
C        -0.53610502826872    7.62599812802212    4.78317528288496
C        -0.98872803631844    8.84701870074419    4.20501050391999
C        -0.95722313061381    6.39714983205990    4.23034407895060
H        -5.30732509543714   -0.68662046649840    1.60464428690853
H        -2.90181734891628   -3.73546534466575    3.36289446024792
H        -3.30557931687132   -0.00850089814497    5.35634579797487
H        -1.08637595615187   -3.83190263252053    6.11630339413963
H        -5.50767614304189    2.78256093689545    4.71138291458639
H        -4.69988794978830    1.54112397389752    5.65879108334503
H        -5.35565229097035   -3.29107618542120   -0.40710433437910
H        -6.86804081071118    0.46835483586747    2.57392748840461
H        -6.91234469537983    2.07610493993314    3.27137233486640
H         0.53336734029064    4.21110494911882    6.12883633929542
H         1.36507266872013    6.27060668271923    7.23894120113702
H         0.66870517967131    8.49434344084325    6.34364786410007
H        -0.65170494453758    9.77392679230669    4.64464523582912
H        -3.97160442572357    2.01221049179312    1.97335019314751

