103
CSD_code = VEJXIR | q = 0 | S = 0 | Stoichiometry = C50H44N6NiS2 | MND = 6
Ni        0.15967281832480    9.07580753158519    0.01033273784491
N         1.93557866057602    8.99131395280808    0.33398948663592
C         2.88863867735059    8.30114982370210    0.29243386467409
S         4.23472876851683    7.46144138636888    0.24687091929001
N        -1.60382730378351    9.14849405222473   -0.33426250653156
C        -2.59811569877251    8.52062415054294   -0.39285719148392
S        -4.00012778625996    7.78168707702097   -0.45714956442970
N        -0.01491330876780   10.78942150707586    1.30342234615278
C        -1.20303023516850   11.28216330031499    1.64955025872538
C        -1.37769005892441   12.55718779448726    2.15248634203945
C        -0.27689820770222   13.39439088842166    2.30418020186251
C         0.96347341280944   12.85878325253715    1.98465577259819
C         1.04832456408851   11.56482485310747    1.50178094371577
C        -0.44344261518373   14.80780183867525    2.76465108563904
C        -1.23369803368733   15.65586257210460    1.79354726193198
C        -1.42636959455825   15.27679107812686    0.47306239392285
C        -2.15214031881816   16.08163651418754   -0.38742994899829
C        -2.68403077040793   17.27901541741306    0.05476234040377
C        -2.48449434589694   17.67100688575336    1.36734106260438
C        -1.76771222263461   16.86250881920349    2.22943097093325
N         0.56923567344810   10.83376861146186   -1.56038330350197
C        -0.43019392023997   11.67565901046131   -1.80763553288434
C        -0.23907852851617   12.97979109935597   -2.22997502414764
C         1.05305965868607   13.45385705437787   -2.42614384509839
C         2.09266401371436   12.55885720972162   -2.20204305274738
C         1.80480310618439   11.27552878286245   -1.77173596088632
C         1.31262762250241   14.87525190100397   -2.82708270289418
C         1.30549642760339   15.79693992615841   -1.62823348828179
C         1.99535188118973   15.46006628419747   -0.47049273581828
C         2.01397313944071   16.32150978229274    0.61078808233147
C         1.33778478608914   17.52795252579661    0.55453374407073
C         0.64867903619370   17.87071321062723   -0.59425925882503
C         0.63370221635807   17.01010330199876   -1.67763209012508
N         0.31740636243495    7.50254298605099   -1.33802564588468
C         1.38922864502304    7.44011588198036   -2.12604713656115
C         1.92922840350256    6.24789199437635   -2.57146358822754
C         1.33403260546583    5.04854889774602   -2.20116368617938
C         0.14652016394182    5.12836354221069   -1.48113623373896
C        -0.31996762805800    6.36197836265351   -1.07449205023147
C         1.94846429358927    3.71403286906504   -2.49523012623478
C         2.14855749337640    2.95905608722051   -1.20321977726881
C         2.74942371383383    3.58959901058129   -0.11948607321471
C         2.91302537639930    2.91877113174939    1.07874954153398
C         2.48239070088759    1.60834843792679    1.20758748326254
C         1.89520904685987    0.97071805679152    0.12901137085666
C         1.72743520814451    1.64454257445893   -1.06871469994166
N        -0.14179488279937    7.59724177732159    1.83689051961775
C         0.57057974835519    6.47364370764926    1.76311904611665
C         0.05079304025210    5.22139442449062    2.03109395372272
C        -1.28301308097477    5.10660492151408    2.40684849283827
C        -1.99629454176210    6.28598598737142    2.58335119595372
C        -1.38757898942217    7.49387979254488    2.29318483004892
C        -1.93366357915852    3.75995582176568    2.51337989582424
C        -2.16375287026043    3.25793509397407    1.10706715350500
C        -3.00359381127976    3.96141259037038    0.25055850620069
C        -3.19704773221233    3.53567544222917   -1.05044789113239
C        -2.55738457551951    2.39578508339557   -1.51034471082057
C        -1.72066299198191    1.69031207150680   -0.66329351662795
C        -1.51732071162984    2.12473920214721    0.63585896333213
H        -2.06062624586725   10.64213888452024    1.49868015836131
H        -2.36740396407912   12.90823131953450    2.40213314541209
H         1.86108676613038   13.44620799472191    2.10165636004501
H         2.01059045272212   11.13648407509764    1.25723921315543
H         0.53780224839572   15.26746377556438    2.91034658464927
H        -0.95908138212027   14.81429761683282    3.72969367184435
H        -1.00751310406708   14.34983574099762    0.10970103596659
H        -2.30406999079809   15.77043583458928   -1.41042983277395
H        -3.25069835403845   17.90461869850621   -0.61867778451996
H        -2.89309630152106   18.60585062172825    1.72210984733344
H        -1.62025552361993   17.16986697215888    3.25540227096065
H        -1.42763731544339   11.28463730003984   -1.65631163939239
H        -1.08930553300621   13.62042739009417   -2.40918218024744
H         3.11851274015379   12.85628270151707   -2.36266152847402
H         2.60716766929975   10.57588075764251   -1.57801410048934
H         2.28946588251134   14.94360176694440   -3.31505675691163
H         0.55263920648513   15.20611490521751   -3.53752306278063
H         2.52370402448436   14.51901848187368   -0.41652560550792
H         2.56996125780247   16.05527836411192    1.49864424747597
H         1.35055384739327   18.19914112161587    1.40019386626660
H         0.11966975879908   18.81033756879054   -0.64785802648480
H         0.09713706540206   17.28927998416815   -2.57335459937516
H         1.84614551378842    8.38163075368698   -2.39590108945860
H         2.82802529170313    6.25802680279711   -3.16902742814597
H        -0.39099170059889    4.23421800690090   -1.20653218918921
H        -1.24186575921954    6.42555833194289   -0.51301624366456
H         1.29266800766902    3.14053243291528   -3.15500646624221
H         2.90850395783537    3.84947636924147   -3.00013188994443
H         3.09109022047248    4.61030241514511   -0.21349804764200
H         3.38064809695720    3.42132533587196    1.91296941119098
H         2.60871048754171    1.08531483227287    2.14453216792127
H         1.56447450340937   -0.05403284739123    0.22002912712917
H         1.26807570031581    1.14235258909606   -1.90852474202228
H         1.60387169854340    6.57710498116914    1.46154270817221
H         0.66713538378340    4.34272948689115    1.91203738219502
H        -3.02330480075400    6.26711341336746    2.91568418796559
H        -1.93123276440385    8.42011495589852    2.41843077188900
H        -2.88663267931549    3.84179061603842    3.04038189827921
H        -1.28784919801261    3.06505462916167    3.05273460092452
H        -3.50561921834969    4.85176473588920    0.59990835213707
H        -3.84606700647842    4.09776516107290   -1.70495076921245
H        -2.71131777441990    2.05997547549188   -2.52549637481307
H        -1.22206316815404    0.79806564302278   -1.01185790896522
H        -0.85235891777695    1.57389685843955    1.28604783176460

