99
CSD_code = VEJXOX | q = 0 | S = 0 | Stoichiometry = C38H52N6NiS2 | MND = 6
Ni        0.27231660182074    5.03463951069964    5.97528093777538
N         1.93537367529283    5.74864556363391    6.21071942295601
C         2.57597276052558    6.63312677987944    6.64776888568128
S         3.52368630615484    7.77082116281268    7.21746463198677
N         1.03359262961245    3.82431135874017    4.62438542222605
C         1.76754405059631    4.28679544782978    3.61784937513652
C         2.34184524774100    3.46794503636770    2.66038553037330
C         2.16787310632254    2.08989260340690    2.72182135990174
C         1.39353083868699    1.62400755805465    3.78308532016903
C         0.85234337187018    2.50762640764306    4.69617132368906
C         2.75877659641043    1.11998302655898    1.71728554863620
C         3.59404774857646    1.82541946056539    0.64633550026140
C         1.61100678998940    0.36993313287821    1.02656970703636
C         3.66116310230614    0.12475478621005    2.46025550541796
N         0.73157577377766    3.51586076268931    7.65449338334924
C         1.98227664263041    3.17854217859508    7.95944249404947
C         2.33678221447650    2.54040962914147    9.13261535243254
C         1.36115019396670    2.20944327884909   10.07178497799152
C         0.05548427913537    2.55397444350366    9.74035679657505
C        -0.20533588384258    3.19364081994660    8.53941808317765
C         1.74597865727560    1.51039838011727   11.36202542049987
C         2.72602121517207    2.40452391824142   12.13444679843905
C         0.53735807461780    1.22791077824009   12.25759308685194
C         2.41882343045558    0.17388275674668   11.01873314532787
H         1.90545972371850    5.35849585827828    3.57002750637483
H         2.92166351291004    3.92680627588740    1.87739731610651
H         1.20075508972132    0.57035611391726    3.90893331900114
H         0.24458737453472    2.14132804565997    5.51215468953151
H         4.42745315045889    2.36368675997227    1.09170919129553
H         2.98707040520139    2.51958979937849    0.06990616214518
H         4.00050209503691    1.08626918264204   -0.04038891667701
H         1.01859619450370   -0.19445838798241    1.74131463353714
H         2.01060023757933   -0.32411312988572    0.29087833192979
H         0.95403245144589    1.07176228399184    0.51722388811479
H         3.10054201431266   -0.45354603363200    3.18929428393100
H         4.45722453839728    0.65304529403542    2.98069445913858
H         4.11211944145142   -0.56658700015348    1.75223298241396
H         2.73745668101581    3.44065416833240    7.22966497106387
H         3.37568252069530    2.30634809448526    9.30425702978723
H        -0.76942115813536    2.33325400771719   10.39695990393658
H        -1.22151701703936    3.45520415705265    8.27178319218132
H         3.62956131188666    2.59174523913296   11.56088009817757
H         3.00885454361794    1.92598642093857   13.06934168205686
H         2.26289903053282    3.36213781789583   12.36379394111270
H        -0.17677711873162    0.57695496760357   11.75833542601617
H         0.03852134573791    2.15065721071451   12.54521921965663
H         0.86842108340446    0.72862957491445   13.16567630172910
H         3.32092628917634    0.32269167972150   10.43173187679407
H         1.73880716090602   -0.45543578175767   10.44798884831137
H         2.68974135473037   -0.35130442376930   11.93182584772624
N        -1.34810295427034    4.23855718249870    5.72499381947633
N        -0.11310275160391    6.61198897267450    4.33961149901144
N        -0.51539003628519    6.27484732563960    7.32462067761013
C        -2.49718918547132    4.37456574988723    5.51600366055598
C        -1.13117388919893    6.34107225198470    3.52477426284461
C         0.01024353874874    7.88269547508200    4.72500242359069
C        -1.60669344027722    6.99126462809934    7.05554337128178
C         0.13282238518315    6.57455041701062    8.44769085780428
S        -4.05450649105688    4.48008737932391    5.23046721074272
C        -2.09446566004826    7.26423219500623    3.15661340888720
H        -1.19079608186924    5.32453048830331    3.15642540379471
C        -0.89701664155095    8.87320347839437    4.40223419372311
H         0.87748848639313    8.11640999052155    5.32983464600945
C        -2.04360326249762    8.03451904937320    7.84603754041370
H        -2.17541542393704    6.72303144238392    6.17645995878576
C        -0.23548272301477    7.60636006554098    9.29232522704748
H         0.99962253933012    5.97679740934140    8.69181256003906
C        -2.01409420971825    8.57129861849710    3.62507431758001
H        -2.90027928482776    6.94014448688981    2.52032194137350
H        -0.72821425703021    9.87235949866026    4.77288681194585
C        -1.34113150330389    8.39406362638050    8.99372343528043
H        -2.93403838800458    8.56410125452022    7.54753309804474
H         0.36485989705130    7.78394107720139   10.16836106520663
C        -3.06058715203541    9.63142583192954    3.34025603853682
C        -1.79227146087821    9.57196065854602    9.83354866728170
C        -4.20274274812811    9.10401475755584    2.46908196831411
C        -2.40065358700191   10.81453470893585    2.61933915223973
C        -3.64785111156416   10.09673752796989    4.68074868162882
C        -3.20041932533568    9.28374843449651   10.37275135255104
C        -0.85770338974486    9.83534795599367   11.01621076233536
C        -1.81884305568775   10.82412118091766    8.94540386132298
H        -4.70858773351982    8.27071575426668    2.95112811984610
H        -3.83670343637724    8.78387519420709    1.49612622234419
H        -4.93324923166116    9.89451828399812    2.30989593569949
H        -1.62270487851732   11.26775305684849    3.22773184892533
H        -3.14481364915270   11.57587411843484    2.39593085855909
H        -1.95407522827392   10.48422139084341    1.68367309852572
H        -2.87737834260104   10.51309194242882    5.32520417316170
H        -4.11415723170532    9.25765243538833    5.19391321063892
H        -4.40390402483424   10.86070264044251    4.51279064297499
H        -3.91142645981998    9.13374854919836    9.56499208672234
H        -3.54331702196125   10.11873623111104   10.97932704186020
H        -3.19229986608977    8.38857114029592   10.99110502004276
H         0.15336271926355   10.04423661250298   10.67469528973912
H        -0.83673747218769    8.98686465194089   11.69628703257797
H        -1.21145713744601   10.70099863926333   11.57195751811255
H        -2.52999942311431   10.71786666687160    8.13064357555796
H        -0.83309739677568   11.00563942035404    8.52195107175162
H        -2.10567269831365   11.69157317554459    9.53533118250057

