43
CSD_code = VEJXOZ | q = 0 | S = 0 | Stoichiometry = C16H19B7Ru | MND = 11
Ru        3.50639167239250   10.18353061880439    8.04213474870463
C         1.52659287745495    9.68809832622378    8.62154459635392
C         3.24275159823671   12.22552600838840    7.90142602487068
C         0.94330911721578   10.62135248718834    7.61554151473542
B         2.10824452722391   10.50690788595689    9.87870889175285
B         3.05205074715004   12.01288828291520    9.48121308736422
B         1.95583560467058   11.84632057856057    7.05044023113924
B         0.39863471929082   10.78575969494144    9.28076331120412
B         1.94570167453839   13.08692152408487    8.50876696951529
B         0.52061828677768   12.15472981822408    8.18477154141671
B         1.30211031862893   12.14682306694113    9.85852659734769
C         1.22738201824281    8.24875860324252    8.52388286839456
C         1.12352209390399    7.62111843586821    7.27710888383054
H         1.26216759819293    8.19633327021879    6.37081924775878
C         0.87301200665822    6.26961340578522    7.17614124813430
H         0.80274469711325    5.79832378460270    6.20610935453815
C         0.70826516877363    5.49713703901491    8.32648744040852
C         0.79856487591285    6.11370449180086    9.57511857423204
H         0.66566549850414    5.52120618682900   10.46868568876163
C         1.05128137867798    7.46564121197698    9.66808162380668
H         1.11105646853065    7.93318794562712   10.63882177447334
C         0.45411256029068    4.10945021926669    8.22639676154694
C         0.24251640978717    2.93075276213402    8.13873851561502
H         0.05558863389919    1.90126341156041    8.06439797943218
C         4.40625708354482    8.66454641277430    6.67806826002299
H         4.00893386513972    8.21253733871208    5.77908171228712
C         5.22129466475872    9.83355030949454    6.73076127838174
H         5.56043290512525   10.40477437958133    5.87634384997081
C         5.68117070881135    9.97829244648951    8.06820882539209
H         6.41639541517138   10.69294400796764    8.41396506774349
C         5.14982950354836    8.90106601510425    8.83625311939982
H         5.40363457544000    8.67123999823370    9.86164800226203
C         4.37849019399637    8.09010808681951    7.97167455433788
H         3.93303675255988    7.13881374560390    8.23083129438463
H         4.06507540655131   12.79509593877514    7.46819860148144
H         0.27658816923939   10.17891452244981    6.87989957894415
H         2.35639293549696    9.92023388234916   10.87019576744871
H         3.88860810356919   12.40390482785626   10.21290520066517
H         1.84936225104447   12.13019281938308    5.91111322957132
H        -0.60650975611547   10.28654578030028    9.61832208682588
H         2.02180452134376   14.25538242502835    8.43119100410720
H        -0.47372825779678   12.62713731694163    7.77422175670181
H         0.92031040650262   12.70597068598429   10.81888933473513

