65
CSD_code = VEJYAK | q = 0 | S = 0 | Stoichiometry = C26H30Cl2N2NiO2S2 | MND = 6
Ni        0.00007702851164   -0.00000657495281   -0.00007078002359
Cl        0.71123421449629   -1.93004333016031   -0.84840957380095
S         1.21376079716804    2.92467977544140   -0.96759878765050
O         1.47835736602488    1.48508000863036   -1.18735807361531
C         2.39827588754297    3.72060564488941   -2.15556039250243
C         2.19407524935274    3.39017357323928    0.51663813594181
N        -1.24185477406695    0.13798246898024   -1.34052167505845
C        -0.86388536014703    0.18951114346841   -2.61718316081354
C        -1.76777171861191    0.28729193590290   -3.65585733881499
C        -3.13488070358544    0.32354124469377   -3.38443121338499
C        -3.51178399592743    0.26408146911488   -2.04346239977456
C        -2.54431838930130    0.18068340116457   -1.06233224705727
C        -4.12941428593195    0.42129116289943   -4.45910494705727
C        -3.90469273896281    1.24888879874916   -5.55718480606858
C        -4.84424605937732    1.34462908415082   -6.56637009793756
C        -6.01598278339824    0.60915789848910   -6.49944285125345
C        -6.24637476673256   -0.21989838448446   -5.41420436050453
C        -5.31338053831214   -0.31049998542157   -4.39840105073362
H         2.04872177637820    3.50211358988967   -3.15866610076152
H         3.39104005359880    3.30883014704571   -2.01956695862497
H         2.39560424464074    4.79128155611889   -1.99043610833436
H         1.65027800239260    3.02915368776902    1.38280795103428
H         2.27257161942752    4.47015167092032    0.55427681964194
H         3.17256304704183    2.92587208007524    0.45933101203724
H         0.20036513094474    0.14759316291837   -2.80831801724468
H        -1.40927570403610    0.30968576681256   -4.67310840927457
H        -4.55276233614905    0.30990765409676   -1.76321960571471
H        -2.81636301976334    0.14542016972584   -0.01518906680217
H        -3.00014368684669    1.83720110902920   -5.60500714696307
H        -4.66248857630428    1.99591586718628   -7.40861471589640
H        -6.74739615979289    0.68196012689375   -7.29041621355463
H        -7.15695895834561   -0.79829621566583   -5.35975005508510
H        -5.49041276393604   -0.97091100620986   -3.56211357515391
Cl       -0.71094965308717    1.93000025691193    0.84853722929110
O        -1.47809415841480   -1.48510892318574    1.18724729467698
N         1.24193423792041   -0.13799328880339    1.34043683663025
S        -1.21346825350800   -2.92469166538841    0.96741068091282
C         0.86388844286322   -0.18950846512242    2.61707991756963
C         2.54441881107772   -0.18071197393687    1.06233168664842
C        -2.39810281323009   -3.72072649108798    2.15520244281437
C        -2.19400903546399   -3.39017667365262   -0.51668123611532
C         1.76771033734994   -0.28733174572758    3.65580749143972
H        -0.20037473729547   -0.14764838216727    2.80814762742860
C         3.51182444665643   -0.26413845457560    2.04352443743070
H         2.81652860479851   -0.14550580914949    0.01520166327029
H        -2.04847652671040   -3.50231126024369    3.15828959688704
H        -3.39085255764596   -3.30887242370606    2.01932446735048
H        -2.39553226458486   -4.79140006051089    1.99006441773209
H        -1.65022116718121   -3.02906439059234   -1.38281803316542
H        -2.27248636379727   -4.47016235788506   -0.55444725418952
H        -3.17250036871802   -2.92587980883880   -0.45933555391510
C         3.13483593130830   -0.32361215299590    3.38446653491044
H         1.40915517700166   -0.30974072300281    4.67303756582337
H         4.55282330479305   -0.30996845457504    1.76335240288910
C         4.12930174496221   -0.42129075114799    4.45921344105885
C         3.90456894248395   -1.24891092426204    5.55727157352158
C         5.31321626820951    0.31059548999704    4.39859545354461
C         4.84405678190360   -1.34457605468306    6.56652493493910
H         3.00005816803356   -1.83728809554283    5.60503088927103
C         6.24614147605859    0.22007403639369    5.41447112677008
H         5.49024553561638    0.97103007395936    3.56232662720433
C         6.01572240986113   -0.60898750522335    6.49970391104053
H         4.66230279746411   -1.99589299552036    7.40874234079779
H         7.15669202273571    0.79853835046640    5.36007805038529
H         6.74710536054550   -0.68176707760071    7.29070724595422

