65
CSD_code = VEKDUL | q = 0 | S = 0 | Stoichiometry = C26H25BN6O4S2Zn | MND = 4
Zn        1.08518270129989    9.25041537817496    8.83053995781183
S         0.52900059571751    6.98241583301400    8.93592007766622
S        -1.67596628052705    6.01719970885185    7.19685303388388
O         2.86685529825899    7.73653781656127   10.62527646381229
O        -1.56602456770698    8.52327027372372   10.34025824531753
O         1.96770171356853    7.59624039277603    6.41406129847948
O        -0.75379464936575    8.47570629702159    7.34264995128350
B         1.58010635454041   12.28363344973426    8.60362332411641
H         1.77169612233616   13.44261041717254    8.52237073104080
N         2.47380884148589   10.32704691403432    9.87957380035873
N        -0.26734061418886   10.74199335872941    9.27358967093489
N         1.72762235227854   10.25501936798769    7.15506538183759
N         2.48511506310338   11.64904316003097    9.66779896531472
N         0.11706206913068   11.98930130803506    8.97245083513423
N         1.84806214095999   11.58462431728775    7.25993555640949
C         3.64405623729659   13.69493942121860   10.52132085180932
H         2.73534640506787   14.24313753798616   10.76207457551690
H         4.00422722427600   14.04362030819572    9.55538035777517
H         4.39566690505348   13.90976281280623   11.27568498291001
C         3.37998087057246   12.23302287818205   10.48773867326652
C         3.96748135525247   11.24322376108543   11.25381644831366
H         4.72053161959980   11.36123217998535   12.00446570480744
C         3.36361110075022   10.05186286287597   10.83352201343576
C         3.57339995976290    8.69653938011616   11.25663208062008
C         4.37913599980366    8.12928586719643   12.21187282825007
H         5.05179219002468    8.63956570657645   12.87010374793127
C         4.13591137188798    6.73931809212582   12.14922731243175
H         4.58986376610329    5.97983092031357   12.75207998590366
C         3.20776952849997    6.56242065875845   11.16660512794012
H         2.72436713176769    5.68929350826944   10.77556775794549
C        -0.86737901761432   14.27438900865356    8.72187985656621
H        -0.54480887001616   14.44485146391365    7.69624757667062
H        -0.15755892620002   14.76436200370106    9.38509280268918
H        -1.84743584047218   14.72232285110466    8.86019297434246
C        -0.94218684672485   12.81907922746043    9.01278805200942
C        -2.05361718909146   12.07343853828087    9.35819418000077
H        -3.05772127419779   12.41948246957382    9.48790977325745
C        -1.57844538688145   10.76608179727121    9.51959059487992
C        -2.28772981449482    9.57897143631689    9.90838407415628
C        -3.62331359232164    9.26412560721486    9.91464460170214
H        -4.43239302742501    9.89952094284500    9.61737933197647
C        -3.70717927855665    7.93049763531912   10.37183221222711
H        -4.59556104537457    7.34652538875288   10.49618737351894
C        -2.42638279692729    7.53490663358852   10.61467490355881
H        -2.01247755981132    6.60682104795079   10.95557018607932
C         2.35974947848409   13.56568071941696    5.82172075924518
H         3.16908563381961   13.94114181759606    6.44470948018869
H         1.46133969383847   14.13247135934641    6.05835079914448
H         2.61337791476920   13.72862107097911    4.77798643503838
C         2.14737831172546   12.11419066958006    6.05897862301157
C         2.22179460392142   11.08022765553947    5.14440362656447
H         2.44737095724543   11.14664256067983    4.10063808055923
C         1.95484770165780    9.92135447571139    5.88369047618543
C         1.92331537254525    8.54947839571223    5.45993407795248
C         1.82940636845721    7.96506309048882    4.22208931867246
H         1.77048495350027    8.46834174180884    3.27882687410216
C         1.80769330329612    6.57127082512739    4.45007145796620
H         1.73297989268181    5.79888798457812    3.71270808066431
C         1.89544973676624    6.40882272839643    5.79995171639411
H         1.90133002675276    5.53510466409403    6.42108998593338
C        -0.68903783565777    7.19216168836541    7.76572757020070
C        -1.72301988868109    8.79996175697758    6.36576956348092
H        -1.60817355264220    9.86292835114837    6.16497495396086
H        -2.72789155590478    8.58755836303282    6.74081541459014
H        -1.55641945702310    8.21770014064395    5.45543447030015

