64
CSD_code = VEKDIZ | q = 0 | S = 0 | Stoichiometry = C26H25BN6O5Zn | MND = 4
Zn        7.10208121251075    9.60814560424015   10.99793353950633
O         9.41207316448781    8.29987384900844   12.37972067319124
O         5.30632856157959    8.30589108450647    8.99232079654900
O         9.86518521113432   12.38459508169358    7.67972648764551
O         7.92060515801147    8.12137073716774   10.00625625585308
O         6.56697783730760    7.64180896233041   11.64175495513762
N         7.52218351578822   10.19760441124010   12.85481804399107
N         5.20198854117189   10.20625678197482   10.93694659593105
N         7.59960333006188   11.52571980383433   10.40253804426202
N         6.80250932679639   11.22167678389823   13.31501184216441
N         4.89005081633229   11.23421996195706   11.72712571216316
N         6.98202785074798   12.45120213526778   11.16346577320198
B         6.02452709524951   12.08717744698501   12.31311045325570
H         5.59830467338344   13.05417535738614   12.83414705863591
C         6.27022532777253   12.35210596514286   15.47725688108226
H         6.55338708721520   13.35106548861955   15.15120155326201
H         6.55274656907848   12.22693596212990   16.51876120136794
H         5.18875762137539   12.26360401355876   15.39220036998314
C         6.94510643866338   11.31854215940802   14.64959342839839
C         7.79974997024800   10.31048126087046   15.05925383990026
H         8.13228080779989   10.10235990651092   16.05488668510296
C         8.14377242322867    9.62845731714989   13.88569368122867
C         9.03846693989957    8.52825713263832   13.65501273621770
C         9.62671957788218    7.60934148445787   14.48619966252623
H         9.51314462495695    7.54013837171798   15.54838185463885
C        10.39707916058933    6.76840895105211   13.65246186870329
H        10.99457915383516    5.93302959477298   13.95603189279383
C        10.22581481720741    7.23820504318910   12.38459856472711
H        10.61883224137306    6.91786435930023   11.44001855161454
C         2.87108028906448   12.38625264257283   12.64030712069265
H         3.15152325801126   13.38172997943572   12.30155992992048
H         3.14820001172602   12.29654434860542   13.68900244414518
H         1.79447214074564   12.27250190562643   12.54984378216782
C         3.55273050581363   11.34426307747095   11.82888171266828
C         2.98502375793213   10.34073271131582   11.06401297970564
H         1.94361303066142   10.14257151901582   10.91785070270079
C         4.06998621054321    9.64751029713269   10.51351129756647
C         4.12336257651079    8.54537228908713    9.59342344481339
C         3.19051407699417    7.63352418344558    9.16960136399019
H         2.16675762299935    7.57353787540120    9.47660083314984
C         3.86138879476166    6.78513921401728    8.26083239923688
H         3.44615566049661    5.95220562190246    7.73092088429013
C         5.14305493574393    7.24399095462548    8.19539224048349
H         5.99648886848052    6.91530778585478    7.63598126481715
C         6.83757088907858   14.94604259047948   11.37901365208040
H         7.27388022543604   15.79622822361871   10.86182675704474
H         7.11459939233594   14.99358101148095   12.43033857715954
H         5.75347662441547   15.01036222345826   11.30977947990319
C         7.33230603614352   13.68826504564098   10.75969508179845
C         8.20574323734019   13.55765472843136    9.70147814790836
H         8.68036080654130   14.33507934304591    9.13980617078779
C         8.34740021431419   12.17533957011733    9.50800131425853
C         9.16867793484504   11.55663424431774    8.50154969629146
C         9.41849266825543   10.25094209616844    8.16566478898167
H         9.01165084495948    9.38293234011692    8.63684018369776
C        10.55241692116249   11.60991204955833    6.82821460098120
H        11.16432992280760   12.10618964304169    6.10059791825493
C        10.31827871208112   10.29198402004978    7.07768510373204
H        10.73386682556135    9.45578386893357    6.55323650906955
C         7.32326022173693    7.27975198051517   10.72879368895120
C         7.54610709662593    5.80557164835137   10.46166893556688
H         6.59065376288937    5.33744386202272   10.23694614515473
H         7.95117140539388    5.34053877100833   11.35735826029319
H         8.23149546190742    5.67456332212183    9.63015358469519

