61
CSD_code = VEKFEY | q = 0 | S = 0 | Stoichiometry = C22H30Cl2N2O4Pt | MND = 4
Pt        0.00150210700582    9.26812782974972    0.00134429534647
Cl        0.93499396579790   10.62179748429653   -1.67290604429416
N         1.33880433363558    9.92665547135044    1.41101394394226
C         0.93428828252032   10.66684350855471    2.45340801610575
C         1.80193176219227   11.05864033522730    3.46705161352981
H         1.40878883611065   11.66720519878460    4.26613058976771
C         3.12577492143908   10.67331806641324    3.42828445203584
H         3.81625617874366   10.95841603073955    4.20679524526114
C         3.53737184733071    9.90396287782399    2.35428119320977
H         4.56159176255947    9.57594355948351    2.27075602344018
C         2.62938896526091    9.55492756212292    1.36554460897688
C        -0.49100786561961   11.14429295384425    2.55084693188800
H        -1.04724551117749   10.86859039854047    1.65390625615261
H        -0.96567674096866   10.66233001378522    3.41166849515063
O        -0.59058367702438   12.53187050584940    2.81353491685022
C        -0.03178307935699   13.38861438385735    1.83461357936317
H         1.06661166743918   13.30672255633668    1.84418327848134
H        -0.30564614660397   14.38940220424727    2.18094536257319
C         3.12339011788647    8.77960789310710    0.16857894016845
H         3.04479301340906    9.43541474967057   -0.70940335101375
H         4.17528078024928    8.49917807302012    0.31884355305123
O         2.35203828840166    7.65741910982571   -0.15162889139418
C         2.58265324086028    6.46651981126276    0.57984207108389
H         2.07555292344910    6.50278344367468    1.55336983101088
H         3.66232309634793    6.34061917139627    0.74819829625406
C         2.04370779352329    5.31759205782788   -0.27260513188753
H         2.36549740891384    4.37130194029388    0.16295162263446
H         2.48757513246690    5.40648705730683   -1.26638664729291
C         0.51559388079953    5.36742874300511   -0.40416440569978
H         0.15170374143334    6.33052847942731   -0.04552022353645
H         0.04951600473723    4.60248590858782    0.21761640346954
Cl       -0.92905621208800    7.91384712264009    1.67737207513318
N        -1.33551764690151    8.61103355932146   -1.40941753871707
C        -0.92962855182647    7.87542056090967   -2.45451529738527
C        -1.79584065933146    7.48865251814910   -3.47131495740467
H        -1.40159930413630    6.88397446260525   -4.27279769626388
C        -3.11970741840668    7.87388612453055   -3.43267589151981
H        -3.80893275358980    7.59298570055173   -4.21381803891210
C        -3.53303603343537    8.63737515100226   -2.35514696945584
H        -4.55748201022601    8.96457019495341   -2.27121740161383
C        -2.62644098836585    8.98168846088425   -1.36353723005787
C         0.49525817542995    7.39657437360196   -2.55142085982765
H         1.05104480470884    7.67015475581228   -1.65357643435274
H         0.97135521863941    7.87895809297931   -3.41118621438276
O         0.59316187824021    6.00912557221662   -2.81589348602374
C         0.03013781340161    5.15179373084163   -1.83991788942638
H        -1.06814839184275    5.23482597197417   -1.85327882197090
H         0.30411101422733    4.15111960886477   -2.18650535445751
C        -3.12155276405752    9.75126630918275   -0.16340309496645
H        -3.03766537994577    9.09404366320533    0.71297472680306
H        -4.17506831352574   10.02722654005368   -0.31051130849722
O        -2.35443372183613   10.87634987097858    0.15715632981480
C        -2.59038566830316   12.06611364056884   -0.57432484878604
H        -2.08704474462409   12.03015741841138   -1.54985507187323
H        -3.67102037873226   12.18939915677489   -0.73863094961340
C        -2.05081007926784   13.21701270427430    0.27497600586264
H        -2.37637649675319   14.16213242261180   -0.16031598541775
H        -2.49074347699979   13.12809787270401    1.27049759030007
C        -0.52212478648360   13.17076863313387    0.40084486596912
H        -0.15736574257624   12.20825519220463    0.04160623724093
H        -0.06007441315501   13.93626323464436   -0.22326131483023

