35
CSD_code = VEKFUN | q = 0 | S = 0 | Stoichiometry = C12H16N2O4Pt | MND = 4
Pt        0.97439056677949    2.16894011176522   -0.04104545627096
O         2.21318569894380    0.79215620805309   -0.79472385889263
O         2.14456970288368    3.66692938596251   -0.65466939116370
O         3.65873070595095    0.27838119925949   -2.36999196551168
O         3.68051977491943    4.30671698041475   -2.09162964909516
N        -0.25230445708204    0.69382211001612    0.82561692964478
H        -0.91395137794894    0.31650479533433    0.14731384285280
H         0.34610855204102   -0.07243829956516    1.13228618446044
N        -0.32568514338458    3.48816306330298    0.96594592250218
H         0.24996332391952    3.86682310060641    1.71977236060362
H        -0.63027086011195    4.27397214902962    0.39425473532016
C         2.83616854595696    1.03248546885965   -1.90530818710700
C         2.81701433898268    3.53046440321258   -1.75320471159623
C         2.41013906642021    2.32781915384235   -2.63745555265424
H         1.30691367281800    2.31760773536802   -2.68068899832388
C         3.01087062428057    2.41887806893072   -4.04180944153712
H         3.21718411252413    1.40803760859677   -4.39793781820565
H         3.95628280835668    2.95924345591286   -3.96216394569406
C        -0.94713521672345    1.33894667280076    1.94852126643105
H        -0.22965999718155    1.47375274993739    2.76254625474917
H        -1.78354094606707    0.73366362072508    2.31722649875056
C        -1.45702300861729    2.71257878675961    1.49328575046772
H        -2.18689449133390    2.57826559633337    0.68988944330302
H        -1.95093247729658    3.22242567664882    2.32855101965189
C         2.07927531753471    3.13821349384980   -4.97037284980585
C         2.03627724988487    4.52786223313804   -4.98251399028931
H         2.70593474068549    5.07716573540385   -4.33757061154694
C         1.14820928922015    5.19690247664311   -5.80521746337835
H         1.12619706984366    6.27760051970239   -5.80808340561757
C         0.29029941497109    4.48634191731231   -6.62875350880527
H        -0.40080647344616    5.00892885423664   -7.27488326885425
C         0.32468814824815    3.10248876189146   -6.62262987316414
H        -0.34018575733008    2.54214473869163   -7.26528081289423
C         1.21182688546931    2.43436875436364   -5.79642189007765
H         1.23754059588445    1.35344271265841   -5.79535355824262

