77
CSD_code = VEKGAW | q = 0 | S = 0 | Stoichiometry = C32H32ClMnN6O5 | MND = 6
Mn        0.01875831091358   10.47655299314539    4.84931581057845
Cl        0.93164302977049   10.63893811591347    2.83149098655490
O        -1.51254585982701   11.18126102431010    4.28466668241252
O         0.86183262450079   11.86847645538905    5.56703365567716
O        -1.00366926869229   10.41915295744699    6.93089182301251
H        -0.67553478371470   11.21426859264233    7.36937616119130
H        -1.94248231111091   10.56779621837089    6.76649589327262
O        -3.46847696790665   12.95492115335123    4.27110990446532
O         1.37761004463465   14.44513436683656    5.81031094567877
N        -0.66383165265623    8.71376538860867    4.45538504635670
N         1.61355148000099    9.40603328017951    5.37462889276519
N        -6.66025187562139    9.42141720551230    3.73801274387488
N        -6.90038473943600    8.18169352270464    3.52573961220226
N         6.12254595194359   13.32039810922891    5.93733377611836
N         6.42927019118066   14.56129363336537    5.89408946889919
C        -2.70760211383377   10.73660824718332    4.21377969752342
C        -3.82224286345045   11.64481494462768    4.13656748873319
C        -5.09373180231547   11.17124310153479    3.98005587991366
H        -5.94389796628107   11.83068772619108    3.91860337972804
C        -5.34667079597494    9.77977521895433    3.87462696460430
C        -4.28926253824047    8.88374323360459    3.96160886170439
H        -4.50474407539292    7.82787943665160    3.89818587952227
C        -2.98016340977335    9.32789513425579    4.15315439954901
C        -4.47023187229849   13.92791487958434    4.11500983219254
H        -4.95331838860505   13.85084856130780    3.13619458422473
H        -3.96312298068175   14.88803394726921    4.19412283534645
H        -5.23010221617199   13.85133519784315    4.90062869553128
C        -8.22392655786718    7.82047434211372    3.41731027516987
C        -9.30559035034376    8.70965636173934    3.47763663655807
H        -9.10154161624119    9.75958468170647    3.62290237176437
C       -10.59440333327778    8.24227428138672    3.34613706377136
H       -11.42217947696736    8.93690839809111    3.39065848089079
C       -10.85113834503060    6.88740323789160    3.15505004204376
C        -9.77450019102600    6.00498212473837    3.09606015959312
H        -9.96363808145415    4.95108793599642    2.94657338546187
C        -8.48031027738276    6.45778856071529    3.22214580830804
H        -7.64411427918693    5.77704310887316    3.17442134396533
C       -12.25148167839850    6.37436039740328    3.02209657077649
H       -12.34844546751833    5.75559562111748    2.13115905951331
H       -12.96431404578342    7.19271503445807    2.96004697386497
H       -12.50865893472246    5.75680869926318    3.88297162368821
C        -1.90151540989381    8.40115835170761    4.21486390096119
H        -2.15054007869034    7.35944542846736    4.01022608662517
C         0.34107379621307    7.67780510988580    4.33336548643710
H         0.79290419413523    7.77180086432272    3.33647848024110
H        -0.08413935419400    6.67510026350835    4.45570807632762
C         1.41049384833170    7.97219621403636    5.38844890020242
H         1.03510043162765    7.68440624978464    6.37859944585723
H         2.33796720347474    7.42647278781107    5.18008050259314
C         2.81223798387670    9.86506045597701    5.51535828746678
H         3.64275433271126    9.16400854270154    5.61469438512578
C         3.14443170737063   11.25154325645860    5.59792862532706
C         2.09611123074211   12.22052985493101    5.61555153004236
C         2.44699988170815   13.60397964728168    5.76854654577070
C         3.76053171294748   13.97644731044612    5.84344638485575
H         4.06579610470512   15.00706339215980    5.93144317730535
C         4.79548467179462   13.00769081329710    5.81745974842525
C         4.47275723617472   11.66187725662837    5.71413093525330
H         5.26841556985267   10.93349089888334    5.69975731944760
C         1.63034832039062   15.82884298889352    5.79704281867357
H         2.16133237547185   16.14744198846509    6.70055368148097
H         0.65288748945439   16.30722687130866    5.76360569228153
H         2.20890209269346   16.11943743320476    4.91519220911284
C         7.75700295531658   14.87184701883785    6.08360319809046
C         8.11950133603193   16.20828513009032    5.88723314738423
H         7.35973900833123   16.91093660639849    5.58071820198644
C         9.42570673596819   16.60970020887480    6.07260189555093
H         9.69526142643494   17.64434907503155    5.91304090293452
C        10.40309961623771   15.70132083874095    6.46458933474297
C        10.03806751130390   14.37021604244981    6.66636008901112
H        10.79258157252264   13.65896829478433    6.97363885382358
C         8.74068726737459   13.95377760523763    6.48063350576481
H         8.45108964977592   12.92571956026408    6.63669256594504
C        11.82386736622247   16.12775897123460    6.66642614792801
H        12.47316514719454   15.62488111864234    5.94986786258005
H        12.16411987735347   15.85843232440277    7.66561997455896
H        11.93257467327262   17.20161579334685    6.53760240287926

