91
CSD_code = VEKRAE | q = 0 | S = 0 | Stoichiometry = C40H40MoO6P2Si2 | MND = 6
Mo        0.77668900370692    7.89309045128344   17.43381860260945
P         0.65866053268496    7.98381866132517   14.99738351508319
P         3.11779498377334    7.16499098709050   17.40839135389716
C         2.01517173803214    7.82001592485069   14.00183839524979
C         3.30430034924080    8.32791557300056   14.57409439013763
C         4.31404826813412    7.20660162418153   14.84645774950596
C         4.30307595899222    6.74967984556175   16.27673953045999
C         3.96774648834157    9.42091852323714   13.68765310223886
C         5.02989988858871    9.99405763415533   14.58565892644992
C         5.95956644764430    9.04323650120297   15.00525880747959
C         6.96573187020006    9.39232036571266   15.88368571136836
C         7.04194931023923   10.70064701532285   16.33852054001436
C         6.12054965593222   11.64457893282265   15.91890696860511
C         5.10354826021049   11.29419658034961   15.04285598728281
C         4.66480776132806    8.76502779062406   12.53511431445152
C         4.43483797751173    9.00908032258421   11.19549785562934
C         5.19559750278891    8.34407352199795   10.24562731221122
C         6.17787296945783    7.44863340487529   10.63390344081910
C         6.40523851870025    7.19540001248395   11.97932497951436
C         5.64657710568057    7.85495257169554   12.92597705721369
C         5.73370640410758    7.68212473314561   14.41459388988992
O         2.04010666559484    7.32629043206672   12.75614059689398
Si        1.81291001101615    5.80302030734431   12.15877345459847
C         0.91366090256520    6.08504642295456   10.51188927109097
C         3.51229004753023    4.99849856143574   11.83653025572451
C         0.83589762085306    4.74969779758773   13.41123545361940
O         5.29835631863638    5.90407858614658   16.61901719459818
Si        5.40860080669402    4.27612224950998   16.36618500809120
C         6.24301922210828    3.62555857609921   17.94055687385322
C         3.64842432568975    3.58973480526166   16.11294900675018
C         6.49275970418586    3.96479245504459   14.82710730769606
C        -1.82000342932858    6.81197678702941   14.59460645071996
C        -2.96802093960390    6.53794122961181   13.87478647324215
C        -3.11015919143465    7.02050720337186   12.58350881112288
C        -2.10375827494349    7.78518067643916   12.01445968087062
C        -0.95124294750611    8.05784919674799   12.72670763154328
C        -0.79349796231331    7.55634199288334   14.01723241357110
C         4.96758495724354    6.74148948627928   19.43608862123475
C         5.42937715142813    6.15883625984220   20.60079487575102
C         4.66708288147275    5.19838458978352   21.24675173513679
C         3.43798546798695    4.82407165548176   20.72855058580433
C         2.96854363827219    5.40827101922328   19.56611069800379
C         3.73627944794204    6.36312740980696   18.90808436204767
C        -1.09425616405427    8.39956930472111   17.56400608595638
O        -2.19343994100299    8.68587768214707   17.69912799320815
C         0.22572560748315    6.01289750287087   17.36961737985477
O        -0.13683180592690    4.92705549531391   17.40065615899737
C         0.82003892769147    7.76771549490110   19.37173591269816
O         0.79391125487962    7.70871818674922   20.51374538118214
C         1.27230311360146    9.79224715464846   17.59724449664670
O         1.51432571362642   10.89537409208987   17.75861819794212
H         3.06065600131228    8.82148515510999   15.52738526680844
H         4.07337883300335    6.33436400066608   14.22439266438637
H         3.22989104094447   10.16147765270135   13.37399508811481
H         7.68105022206684    8.65287320342706   16.21398835165075
H         7.82535435788626   10.98397066756617   17.02590483296223
H         6.18908551990381   12.65989400694556   16.27999513339534
H         4.37734499147542   12.02766289684927   14.72420739015632
H         3.67181285584222    9.71101119978945   10.89272410334200
H         5.02410165997640    8.52934349938557    9.19558396241183
H         6.76885798740576    6.94073850149315    9.88598193169756
H         7.16779774615622    6.49247843197957   12.28294639056296
H         6.49140451082521    6.96006226966595   14.71823223227013
H         0.95826755216544    5.19057268903563    9.90046452775122
H         1.37861734135965    6.88994371090168    9.95116574162502
H        -0.13229337032686    6.33725640147156   10.65258460537735
H         3.40719265035112    4.18710206547744   11.12357827657708
H         3.96095620837793    4.57804023740155   12.73297476579233
H         4.21454275044953    5.71260262521643   11.41706031874572
H         1.11659086481315    3.70173616481992   13.37862256753486
H        -0.23462202143956    4.80539166341981   13.23743080924571
H         1.01587597375046    5.10789040546331   14.42603901416297
H         6.55855839169818    2.59626300900828   17.80973438835682
H         5.57232631548684    3.66421806837571   18.79344692993950
H         7.12143845760245    4.21187693189369   18.19088772529619
H         3.53492866593418    2.58580242956379   16.50705260835079
H         3.36108103615779    3.56250092459804   15.06526082114152
H         2.93124809265558    4.22785040014279   16.62937730936140
H         6.60554000862512    2.90026115091512   14.64997430915384
H         7.48927020754586    4.37493092767869   14.96521929395173
H         6.07981698099500    4.40452683000469   13.92301505274696
H        -1.71203533771409    6.44714986528411   15.60864765887160
H        -3.75756896965068    5.95343654162279   14.32354793735533
H        -4.01057201667925    6.81131964907510   12.02515778451567
H        -2.22493366823425    8.17810793151418   11.01513680820263
H        -0.16935949333894    8.66285879644109   12.29168360228723
H         5.55292166758579    7.49417548580694   18.92599992253137
H         6.38381699767652    6.45565092280416   21.01052603158949
H         5.02846260017905    4.74525277026540   22.15812739004445
H         2.84187227247692    4.07837694039127   21.23384099999230
H         2.00437998904404    5.12020938493495   19.16558465317484

