42
CSD_code = VEKTIP | q = 0 | S = 0 | Stoichiometry = C10H22B8CoP | MND = 9
Co       -3.57266890785105   -2.88881950645947   -3.24568662727632
P        -1.48858253524998   -3.77217844288828   -2.91810909942227
B        -3.09454451161628   -4.47504603662550   -1.84091433012526
H        -3.25305515234090   -4.06300357664434   -0.74595327016036
B        -2.50065597589353   -4.14807442657126   -4.66764814514240
H        -2.22964591621059   -3.50388134889836   -5.61822208435633
B        -1.82709765884612   -5.70170410373032   -2.27104470854038
H        -1.00942474250894   -6.04447505544512   -1.49299436710843
B        -3.52280882526972   -6.16011352134131   -2.15052447586206
H        -4.03696148919431   -6.76035210717278   -1.27921469063133
B        -4.18708536138243   -6.25278066384386   -3.77030724651636
H        -5.17127997084706   -6.83574082420032   -4.04464588528072
B        -2.93709810860734   -5.83946560596714   -4.92809159496503
H        -3.03442193437731   -6.21166417329163   -6.03974927997340
B        -1.45268035424904   -5.49675476545265   -4.04499261715392
H        -0.37951311994103   -5.70002234981509   -4.49070251248962
B        -2.52992567717920   -6.79698291818857   -3.48350339813636
H        -2.22567391027222   -7.93092277658660   -3.55116592415867
C        -4.03987361196065   -4.62837861902144   -4.35177340571114
H        -4.87103595879321   -4.37184635676377   -5.00555368929667
C        -4.35793411927436   -4.80276900156367   -2.84062830947555
H        -5.39153059898771   -4.65506443115115   -2.53334408355698
C        -4.78854974148473   -1.44155484072364   -3.91409645673097
C        -3.39976852919330   -1.02407499193837   -3.83646979391186
C        -3.45818031734806   -1.13183098780716   -2.38208789861307
C        -4.84583240942214   -1.54964311583734   -2.47649110674446
C        -5.80830348229305   -1.44752890718432   -4.99817669347326
H        -6.23205032122388   -0.44659581880155   -5.10994322173648
H        -6.62381751616753   -2.13160396737526   -4.76739403883399
H        -5.36239464325252   -1.73028294504108   -5.95037227908133
C        -2.47182400266124   -0.34433014623464   -4.77980496617260
H        -2.67457857734674    0.72914998103332   -4.78632335152428
H        -2.60233934176177   -0.72189559692557   -5.79140750146935
H        -1.43809085007362   -0.49510208524379   -4.47675263685340
C        -2.60761492904922   -0.61387016067487   -1.27740325028676
H        -2.83351593647222    0.44022458616104   -1.10200081963202
H        -1.55402745633536   -0.70045996758988   -1.53356896120846
H        -2.79348035687971   -1.16112676968098   -0.35610278889641
C        -5.94635971737755   -1.71218215414036   -1.48795034708845
H        -6.34084022732395   -0.73122041197374   -1.21284616595760
H        -5.58625338021956   -2.19593987573243   -0.58175259847570
H        -6.76427982325842   -2.29849121266771   -1.90388537796479

