57
CSD_code = VEKTUB | q = 0 | S = 0 | Stoichiometry = C26H20N4O6W | MND = 6
W        10.08794703009650    4.57066647352846    4.28669966176969
O         7.64346225247291    2.68548473805422    3.75128121723583
O         8.95114675629972    6.52528949623227    2.13883026461668
O        11.65218252697520    3.08498033778810    2.03423865567581
O        12.55787345147529    6.47077907256732    4.61448700177381
O        10.17408892358025    5.42834602269852    9.83086192106523
O         9.19769783590911    2.62317288252115    9.57684366963209
N         9.04677330944343    5.55789525733702    5.98568427839672
N         8.24966396293608    5.80839090733950    8.01818018977274
N        10.82320874260765    3.23564049663146    5.90746588846541
N        11.32239368387721    2.55566676848621    7.93638279795492
C         8.52935221565243    3.36999498132039    3.99647329103612
C         9.36222205339199    5.80569687930119    2.93604256276887
C        11.08087425421800    3.62813357871742    2.87157056638712
C        11.65154405270296    5.77275942320655    4.54584010372645
C         8.52659892367189    4.94300479812555    7.02181444712318
H         8.31936844835737    3.89124996396208    7.09790223999019
C         9.11312425285101    6.87472060593883    6.31966574599768
H         9.49518712717513    7.60837020003189    5.63587721587572
C         8.63023385694206    7.04488391463834    7.58353192910614
H         8.52838827319133    7.91933674367241    8.19256301118778
C         7.83117159720634    5.46728782548659    9.34387731753586
H         7.33950741351668    4.49081928725418    9.31997769354364
H         7.13728455348254    6.22188712888719    9.72505641726836
C         9.04596045102544    5.36056954412558   10.27482840209666
C         8.76733447133842    5.18485554225281   11.70920346996801
C         9.83580986519989    5.32987495478870   12.59898121524647
H        10.80672026807074    5.57868298896677   12.19747498731624
C         9.65011245593906    5.17173192927955   13.95621391780331
H        10.48266601262331    5.29216155643499   14.63243477134282
C         8.39328142484895    4.85669516985398   14.44827055512124
H         8.24405070585290    4.72994507311532   15.50984960352181
C         7.32687624047210    4.70561207753713   13.57569302577852
H         6.34882894410919    4.45773588097722   13.96016790278720
C         7.50498964064464    4.87054601398599   12.21574755570942
H         6.66367618314808    4.73661757737682   11.55458468861460
C        11.18683643238335    3.61319392451465    7.11090028766909
H        11.37138585164035    4.62224763306989    7.43153771825477
C        10.71483289445887    1.88060263913935    5.95089536132192
H        10.43666383089308    1.31160335246115    5.08450365068882
C        11.01387385240728    1.44374439260547    7.20756075442186
H        11.03299109867441    0.46109477010948    7.63203959604087
C        11.58038130499509    2.59864428524734    9.34405186848742
H        12.05678482593231    3.55327598964927    9.58605475204418
H        12.24049227190902    1.77424386058592    9.62810340497135
C        10.27041026219007    2.51570139510288   10.13764098793971
C        10.38997197087289    2.30271032946733   11.58794721118715
C        11.58702694250911    2.45581278700967   12.29117293989448
H        12.49036267003235    2.75333421790472   11.78246071395664
C        11.61809153646507    2.25162609630280   13.65684483782752
H        12.54585862487145    2.37747746601351   14.19481792725138
C        10.46837612530962    1.88563937694723   14.33965709023790
H        10.50300256942929    1.72309375890721   15.40630705316303
C         9.27556743363230    1.72869141242823   13.65091018256058
H         8.37874039867524    1.44176737355124   14.17868300647981
C         9.23598590704268    1.93906295656012   12.28874462479019
H         8.31686103490556    1.81874589060836   11.73526784874810

