74
CSD_code = VEKWUG | q = 0 | S = 0 | Stoichiometry = C23H47NOsP2 | MND = 7
Os        0.00013232494494    5.82107468436389    4.54223219621102
H        -0.65674407058858    6.37512989561163    3.21006472990398
H        -1.08739617039000    6.89756355964266    4.94969429455829
P         1.52384212763866    7.53402928005322    4.90368536112330
N         0.00002605663761    5.82108460875733    6.70280727616634
C         0.49553371905391    6.86565902980102    7.38408822288034
C         0.51846334253880    6.88819752097165    8.77244233462661
H         0.93237547138524    7.74443771522952    9.28327130439281
C         0.00000162047460    5.82107760072913    9.48405356705475
H         0.00001100790055    5.82106883729422   10.56316078266595
C         0.98842653522704    8.04661279381887    6.61173618255221
H         1.75288244598237    8.59552779466311    7.16738197222052
H         0.13299794267613    8.71262866457450    6.44307584843478
C         3.36841090436399    7.11124271601754    5.21421154551202
C         3.40945386710926    6.15186188839828    6.40830835236066
H         3.19022363977694    6.65832587530617    7.34713460787336
H         4.40340300109611    5.71220108516467    6.49098297725221
H         2.69995551354000    5.33817804416829    6.27137515974822
C         4.30651316079978    8.27530560243411    5.52444689147069
H         5.28037884250794    7.87112803273768    5.80386416781495
H         3.94767707526750    8.87281622576132    6.36037067868091
H         4.45731232470271    8.91576684230267    4.66036184703386
C         3.86927398026818    6.35809203037335    3.98124506350934
H         4.84846558135743    5.92218251427493    4.17881523338373
H         3.95721076486336    7.01265942329143    3.11908229469960
H         3.17570128007309    5.55706358782722    3.73195651955953
C         1.43534839356550    9.21764020571803    4.00616491747278
C         1.92758863431376   10.43855001189692    4.78465416100970
H         1.35661996684682   10.58585010674530    5.69860047596104
H         1.78377298944096   11.32254956618322    4.16261645100808
H         2.97959321089779   10.38523141394967    5.03639158870388
C         2.19432366619398    9.06787916749397    2.68740694159173
H         1.92492544083678    9.87396862203881    2.00540039529091
H         1.92462125201670    8.11847884345765    2.22186373113983
H         3.27106665288294    9.10148599139721    2.83305342971725
C        -0.03746436049923    9.45510155343754    3.66228679304555
H        -0.14075133898146   10.39439871833979    3.11942223550764
H        -0.65889753585376    9.51365122876290    4.55387727819406
H        -0.41483180694038    8.64888049992716    3.03820215255640
P        -1.52389799324786    4.10823282347969    4.90362145451636
C        -0.49552236268942    4.77651639673313    7.38406682638354
C        -0.51845966653727    4.75396715488974    8.77242713980820
H        -0.93236578756350    3.89771928433069    9.28324879196433
C        -0.98848833620084    3.59560802194055    6.61168246415523
H        -1.75293877382792    3.04670321907731    7.16735639612511
H        -0.13307155002371    2.92957253928254    6.44302518697335
C        -3.36845048378088    4.53098854732583    5.21423076310714
C        -3.40948018455287    5.49035332905148    6.40834018959687
H        -3.19026883730760    4.98388470212726    7.34717090837194
H        -4.40340846255278    5.93005997658029    6.49099948394003
H        -2.69995738213962    6.30401185299403    6.27140731733932
C        -4.30656713906779    3.36693616271928    5.52444764916517
H        -5.28043066032854    3.77111888577634    5.80386534175464
H        -3.94772679692441    2.76941352772961    6.36036304916473
H        -4.45736018190014    2.72649573468178    4.66034539400163
C        -3.86923924042159    5.28413062742959    3.98123523848990
H        -4.84844168173203    5.72001863758648    4.17877579983811
H        -3.95712951284257    4.62958651168626    3.11904996539113
H        -3.17567688606993    6.08517982080005    3.73199684408917
C        -1.43537782777023    2.42456321133469    4.00620952253181
C        -1.92763179267095    1.20363650310650    4.78466792551456
H        -1.35670310005451    1.05635220418501    5.69863708977348
H        -1.78380617832669    0.31962063588534    4.16265253088594
H        -2.97964179373460    1.25697526896370    5.03636424821981
C        -2.19432579260795    2.57430784730976    2.68744002225615
H        -1.92494768930044    1.76818900867337    2.00545932648026
H        -1.92458845971372    3.52368705475491    2.22187629078988
H        -3.27106992732283    2.54074092621532    2.83307430765568
C         0.03741763704253    2.18702803052378    3.66230334080689
H         0.14069584251094    1.24773223951684    3.11942923059193
H         0.65884340379574    2.12846925831322    4.55389696941139
H         0.41479853504690    2.99324936943464    3.03822997512892
H         0.65682792829779    5.26692142802377    3.21003244219114
H         1.08794368060752    4.74484747463374    4.94968061068592

