66
CSD_code = VEKYIW | q = 0 | S = 0 | Stoichiometry = C29H33Cl2PRu | MND = 9
C         2.23980540346268    6.29572350117269    9.75875657963553
C         3.45166996197461    6.73335237064310    9.20881682811091
H         4.26039364028596    7.04513459079830    9.85837852459262
C         3.65765694699949    6.72352248483091    7.80311069561059
H         4.62335163707951    7.01936364167164    7.40377465965453
C         2.68158223487827    6.20477028585174    6.93231984230029
C         1.47067764638252    5.72243490955708    7.50285957862398
H         0.72546767667885    5.27784814849753    6.85030342935026
C         1.24485137569005    5.78315114371003    8.87667219291069
H         0.32610282523952    5.38244163220874    9.29172457089807
C         2.91530212907309    6.07627440263986    5.45744983262720
H         2.07990749016375    6.51378856711103    4.91011818929750
H         2.98656285687188    5.02339063815603    5.18073737456239
H         3.83199803409301    6.58208732017645    5.16165287348758
C         2.02877329697536    6.20479531796280   11.25055410930915
H         0.95792397556518    6.06048589926478   11.43224875870080
C         2.45772311791844    7.47307976725155   11.98554348200582
H         3.53216914178218    7.63137918659955   11.92129669448561
H         2.18728587040730    7.39793346160823   13.03581264607501
H         1.94844713661830    8.33427114231343   11.55760869429016
C         2.78214441901309    4.97782332679113   11.77768010215778
H         2.45321448211835    4.07249337845166   11.27021322230285
H         2.59986825346287    4.86165068004482   12.84308756417374
H         3.85340924927524    5.09154299121243   11.62132911421684
C         1.77436975679022   11.56770499196742    8.12179136090966
H         1.12379747133750   11.49802589393134    9.00090461419143
C         2.68943928653460   12.79668314289676    8.24644509124314
H         3.60132691283559   12.54629981840153    8.79227287835139
H         2.97200332739734   13.12724834183678    7.24332161281424
C         1.97527980201081   13.89459334649096    8.96658805103025
H         2.47029676133461   14.30303877465274    9.83675577272421
C         0.77670482035162   14.36141715817891    8.61713810706281
H         0.35224591509634   15.16959233824076    9.19959148076175
C        -0.02171564597161   13.95516948363901    7.47984285208074
H        -0.78076262058207   14.67910279589656    7.20545536633153
C         0.04856482895609   12.84868412186323    6.73638973400262
H        -0.63691417175625   12.77082716059439    5.90040440838996
C         0.89490729834131   11.63019355283522    6.88008567947691
H         1.50733084893162   11.52650087207527    5.97556927238124
H         0.22371174411739   10.76294716374603    6.89331717028983
C         3.82448298851011   10.11039591788441    9.54309595944067
C         3.32570596774839   10.61828108332887   10.74025053725606
H         2.31004224199415   10.98127452314507   10.78459135263852
C         4.12197605030560   10.64044383080775   11.87128944648302
H         3.72900283812864   11.03826869614711   12.79491017929409
C         5.41568998151212   10.14717842412930   11.82508523571088
H         6.03614855059558   10.16659201467236   12.70887535374241
C         5.91047090350053    9.61914862159424   10.64319230918067
H         6.91590199553451    9.22414627689796   10.60533095677374
C         5.11833673881737    9.59460318246890    9.50974050407732
H         5.50448013363542    9.17806242183877    8.58883710739821
C         3.84428033537253   10.23613688553892    6.65655712834274
C         5.00409610869046   11.00474345568953    6.69133970635635
H         5.32475702530225   11.46942266796349    7.61219020628569
C         5.75600543673899   11.17214655288300    5.54204370577340
H         6.65705877237245   11.76737913258996    5.57525420268772
C         5.35776767835479   10.58455869227544    4.35194497779973
H         5.95112700697307   10.71911048706303    3.45949961658419
C         4.19731325438764    9.82924112485853    4.30910671065284
H         3.87827654079187    9.37746297625490    3.38137644684303
C         3.44362667176771    9.65471274490499    5.45596616573900
H         2.52727839831148    9.07740405408295    5.43519516157670
Cl        0.29445242261622    8.36964719646803    6.35877154249023
Cl        0.28656353932533    9.02139021070698    9.59099178914464
P         2.74472734637097    9.98332385697375    8.08546258235768
Ru        1.76925593461167    7.90765722306903    8.13607810393252

