67
CSD_code = VEKYAO | q = 0 | S = 0 | Stoichiometry = C28H33Cl2O2PRu | MND = 9
C        -2.21430340373403   11.22490717475190    7.64093569090965
C        -2.99923152550652   11.90474993750335    6.68477193187836
H        -3.80818482074969   11.36423071467429    6.20274235634298
C        -2.81452961378032   13.28594510233531    6.44740958803773
H        -3.47497550731475   13.80941935948764    5.76596312343474
C        -1.78156313120902   13.96749171005361    7.10019607454300
H        -1.64039438531661   15.02955898046273    6.93102429014867
C        -0.95735287789071   13.29598326304587    8.03747066818356
H        -0.19924568756054   13.84412784382216    8.58444336198764
C        -1.16368113989681   11.93489294404260    8.29596407026634
H        -0.59658373648672   11.43623921823609    9.07283435690968
C        -2.54527582525147    9.82179343919351    7.98097957273689
C        -1.91022605583610    7.91909858515928    9.19722841904688
H        -2.10635554621436    7.31458672702119    8.30520162452883
H        -2.81649140109569    7.92532736843803    9.81364975865551
C        -0.72052836213708    7.38881805094229    9.97333910611630
H         0.15379316528727    7.33358927990660    9.32988056362411
H        -0.94716392607979    6.39338823060643   10.34364942186265
H        -0.50115477168403    8.03871786642415   10.81666350626580
C         2.18984833391739   10.70506461124573    4.65047725014762
H         2.40981766700999   11.76491398874628    4.48107226688572
C         1.52279856348927   10.12200131682645    3.39962778207812
H         1.73813662609856    9.05247057650939    3.34857046213351
H         0.43709657579911   10.23027475115234    3.47663727025473
C         1.95532517298293   10.81662359273596    2.10787788645737
H         1.38805508099424   11.74296415362679    2.00834706314081
H         1.67556058430171   10.17058710224238    1.27324460834965
C         3.44688146022475   11.15444637984912    2.01554470404376
H         3.69121904067769   11.28906090341242    0.95962357609411
H         3.63758836018900   12.11047905804903    2.50612960614167
C         4.38423687990094   10.10384723767513    2.61570895816178
H         5.34790423742923   10.16745363334322    2.10419528062948
H         3.98933393225483    9.10248342399407    2.43968459166713
C         4.64231064162289   10.31266832847683    4.10827578412272
H         4.91251696841697   11.35800695181334    4.27422001392441
H         5.49855892300998    9.70205873901559    4.40762956439123
C         3.46851399492082    9.94993900823404    5.01738994975157
H         3.28224593867257    8.87537270088310    4.94896955963104
H         3.75910878961841   10.17565984789162    6.04765817439563
C         1.91283904900445   11.09579878963538    7.52465162072865
C         1.74857290819771   10.39796630986373    8.71802073280127
H         1.06478241633384    9.56257434031819    8.76253584873524
C         2.44765767843562   10.78386925355282    9.84850765149098
H         2.32174480164259   10.23393581899965   10.77022088268190
C         3.30153096063399   11.87374218298163    9.80244589260144
H         3.84619868112797   12.17029342364374   10.68666542925009
C         3.44427357922802   12.59066512068343    8.62455488799822
H         4.09504956372227   13.45181857507422    8.59181089060198
C         2.75113273214961   12.20974486617253    7.49043329284006
H         2.83455933362688   12.78162249741898    6.57711005261385
C         0.46313675284680    8.96514345422475    6.16841348330465
C        -0.77771384390583    8.59737905504906    5.65629973386252
H        -1.41962179799785    9.35363462714310    5.22004544792048
C        -1.18057469104073    7.27417813250440    5.68841788038641
H        -2.14694394437354    6.99915421848929    5.29346924830972
C        -0.34586401097477    6.30950232066922    6.22919916601069
H        -0.65949791145610    5.27631938548949    6.26005190930261
C         0.89610771672713    6.66928318327481    6.72879788455336
H         1.55063050808181    5.91525668154736    7.14255029588835
C         1.30468846633031    7.99088958900128    6.69855627770395
H         2.27321926349987    8.26591966110214    7.09075543255952
Cl        0.68840587025315   13.63357980957896    5.06500953443671
Cl       -1.52724448298120   11.59731826659182    3.89365235243561
O        -3.54094952883264    9.25170869188627    7.60438672249097
O        -1.63203360402616    9.26014592196656    8.78854505631261
P         0.94882334064981   10.70921033544738    6.03249822806314
Ru       -0.83651902594538   12.15930338580825    6.06386232612487

