59
CSD_code = VEKZEQ | q = 0 | S = 0 | Stoichiometry = C28H26Cl2NiP2 | MND = 4
Ni       -1.72645216877092   -0.00182270407680    4.97718348538937
Cl       -0.15339994058488    1.11750083300949    4.16447206688575
P        -2.64614183704635    0.15277364688752    3.02979710058699
C        -4.37523151871072   -0.36566895804986    2.79965323014377
C        -0.21845845214457   -2.92857173547386    2.01080216321081
H         0.32924719261355   -3.69489530986893    2.53948524793490
C        -2.54030821462387    1.66860735745140    2.05178978471810
H        -1.52579220473676    2.03615530183065    1.95108547665321
C        -1.67741532349948   -1.01727373490628    2.03143767825705
C        -3.56983212123415    2.32390105324871    1.53813502538775
H        -4.58602297224731    1.97966839721130    1.65048086401167
H        -3.43345437840595    3.23762762618546    0.98119387975699
C        -4.76485655515627   -1.38304958994798    1.94003766198552
H        -4.02500790016343   -1.91657987688862    1.36035422458629
C        -7.05374653351035   -1.04462047365929    2.58473061388054
H        -8.09668799329831   -1.31258583166814    2.50028726959501
C        -0.97444686927250   -2.00730274430562    2.71046239225387
H        -1.02272410612062   -2.04065699291354    3.80212605831147
C        -0.85891682716738   -1.87556001450111   -0.05234118624522
H        -0.80835261098670   -1.82535174892071   -1.13036702886095
C        -5.33071410351968    0.29759978072975    3.56496055710868
H        -5.01055954989939    1.06730221653929    4.25654123553282
C        -6.10414005937472   -1.71656744751088    1.83372933188013
H        -6.40640130484721   -2.50924997448150    1.16467534756026
C        -0.16216487109290   -2.86190114354306    0.62774121442255
H         0.43038534894767   -3.57806847470770    0.07766358215105
C        -1.61672319300572   -0.95124798885089    0.64432572385670
H        -2.15858732060604   -0.17615389056519    0.11974242045790
C        -6.66611515913640   -0.03710429084749    3.45408005553847
H        -7.40469649002740    0.47877176394658    4.04994881590829
Cl       -3.29949155447326   -1.12157420729032    5.78941686368251
P        -0.80815365970719   -0.15463896384548    6.92533054824689
C         0.92023708221892    0.36644434815083    7.15552031335379
C         1.30907524524862    1.38225544500342    8.01728437032792
H         0.56914503992198    1.91306319713789    8.59926274025215
C         2.64793073709782    1.71809652504089    8.12247529019727
C         3.59777845589839    1.04991970643621    7.36843449786039
H         4.64026689020301    1.31997038498375    7.45188726046285
C         3.21095671769627    0.04339290710330    6.49751450216113
C         1.87604870521280   -0.29354584080095    6.38771211462091
H         1.55642835933281   -1.06255103568983    5.69515983183893
H         3.94969840559412   -0.46998734342068    5.89977019788842
H         2.94965081878271    2.50988854849503    8.79280125398706
C        -0.91218275645423   -1.66919798233175    7.90556082288350
H        -1.92635175456255   -2.03688462749385    8.00827930357137
C         0.11881474664825   -2.32322710159183    8.41789047920320
H         1.13444500030756   -1.97844278567086    8.30229453026653
H        -0.01543387453265   -3.23617895892714    8.97656188735508
C        -1.77860149559429    1.01491866130060    7.92248281682799
C        -2.48071777899331    2.00536466588742    7.24318565489418
C        -3.23689172429109    2.92659273851460    7.94270933099495
H        -3.78407664432177    3.69329364841187    7.41404508040329
C        -3.29444903435226    2.85929433250809    9.32572170290492
C        -2.59916138260415    1.87204215768387   10.00597926984440
H        -2.65066782080283    1.82121565424762   11.08390881674307
C        -1.84096160519385    0.94795366709325    9.30947962082776
H        -1.29986377924632    0.17228460755722    9.83395219602228
H        -3.88699888086712    3.57557016371301    9.87566584710459
H        -2.43165442053798    2.03899243644298    6.15159856241383

