40
CSD_code = VEKZOB | q = 0 | S = 0 | Stoichiometry = C20H5BF10FeO3 | MND = 8
C         4.52871527703070    4.27627217166127    4.61753012504496
C         4.30713974342070    3.22511493259149    5.56665760990295
H         5.03183886948944    2.90357361794714    6.29761649666241
C         2.95185937252019    2.82135562619076    5.52239660713685
H         2.46117883122511    2.16020362220881    6.21929121174862
C         2.30693827575297    3.59365896703176    4.51402270636140
H         1.24374721796849    3.63099174810891    4.33652995535898
C         3.27211020700450    4.48584013183860    3.97669476330621
H         3.06054733766767    5.28554754847219    3.28448758031819
C         5.85304080916075    6.41347318309716    5.50666189330167
C         6.94916088338611    7.27316291143095    5.52522106836079
C         7.04773642862460    8.36721227178594    6.37416058774031
C         6.01703849788620    8.63642104900310    7.26784055039904
C         4.91125098950192    7.79908748893266    7.28675553875074
C         4.84983051849884    6.71651810106455    6.41545215931527
C         5.94935693518492    5.69171866264316    2.92097830778690
C         5.66410841227464    6.97768046700250    2.47630085046300
C         5.80832951450896    7.37271955919339    1.14903501412934
C         6.24009217850181    6.45823980441404    0.19628350145061
C         6.50275819625106    5.15231730472559    0.59254865163301
C         6.35184240824925    4.80811992889172    1.92792070689523
C         3.91912199415643    2.73859731431354    1.84401621668107
C         5.39642020747403    1.49955022613139    3.56246267679118
C         2.89551806066514    0.91165281329046    3.31862666656779
B         5.86748069963990    5.16338535812575    4.46465748940844
O         3.94071288960080    2.98330439386189    0.73721568154469
O         6.36110253639484    0.91133137717131    3.57054685643435
O         2.29375793449642   -0.03348200547617    3.13107493874782
F         7.96690141595394    7.05116909766542    4.67769118928055
F         8.12616968554854    9.16006745194257    6.34299072832000
F         6.09212410880968    9.68215909081475    8.09885657755872
F         3.90505036982664    8.03162978350582    8.14287217871113
F         3.74312055255382    5.94500449054244    6.49096298475843
F         5.18952125250158    7.89987995962834    3.33271208932136
F         5.51302808765486    8.62512399383800    0.78152977495782
F         6.37497739432793    6.82018412308492   -1.08340384968698
F         6.87913338867826    4.23455038177095   -0.30858161845551
F         6.57557376846036    3.51137639694246    2.25993031719806
Fe        3.85089724669537    2.37906286891603    3.57406396104127
H         6.82506750243631    4.49472378569836    4.69628925474096

