25
CSD_code = VELJOO | q = 0 | S = 0 | Stoichiometry = C9H9AgN4O2 | MND = 2
Ag       14.92373822564278    7.12948593595657    7.15081646295782
N        11.21877296313051    5.57324473898458    5.70967715969793
N        11.82034147586045    5.74244378213840    4.52474370621295
N        13.20829689184643    6.39570436434079    6.12802124791645
N        16.72748284855193    7.90113020843134    8.24665979067660
H        16.81281391116168    8.91215101534624    8.18125511334087
H        17.59443816588867    7.51056467657079    7.88683083949954
H        16.69461460262992    7.67479370405022    9.23743462675637
O         5.34754920419478    3.24255419138552    5.00798909430399
O         5.44182319819944    3.46594930869114    7.24547237486867
C         5.86369714885995    3.51462760182548    6.08978941827779
C         7.34687884425034    4.05310387937872    5.98182777161250
C         7.89089152507895    4.37665804789148    4.74494066917252
H         7.28501393733234    4.21301792461807    3.86616282454012
C         9.17124051660564    4.88115434082009    4.65292090722574
H         9.61437776151385    5.13365751304268    3.70188775623138
C         9.91894097187379    5.06542238713036    5.81670104668851
C         9.38099928791394    4.74483017217900    7.06508252394511
H         9.96502965231016    4.86448975442234    7.96614750314778
C         8.09549259611605    4.25186509120444    7.13563847951268
H         7.63955614191241    4.00172499852176    8.08228951724234
C        12.99562841562514    6.22847589072417    4.79667285001965
H        13.71740476416710    6.47048357874944    4.04087159032213
C        12.05339013522155    5.96974133864353    6.68069457920927
H        11.84068681411349    5.96352555495095    7.72957214662158

