66
CSD_code = VELKUS | q = 0 | S = 0 | Stoichiometry = C32H31MoOP | MND = 10
Mo        3.13332031732168   10.31962983739133    3.20330620862472
P         4.19625640804341    8.24012119646040    3.63192116789869
C         1.20377652941227   10.76139823185449    5.54587887284606
C         1.78083500254764    9.54015688823258    4.86440623707333
C         1.13789294577456    9.40775010160150    3.60691445005853
C         0.93023015242487   10.73950379109310    3.17416406038288
C         0.73876203777707   11.65853798827944    4.37936923812525
C         3.93953280290344   11.98992332919709    4.63688499672705
C         5.01984210918904   11.56226768730586    3.84147480988378
C         4.71474662465021   11.85105713277215    2.48862298376258
C         3.42722377304232   12.43299197434034    2.45436289596121
C         2.93678486877143   12.50191237294290    3.79064802838903
C         1.55490035795675   12.96084038987788    4.20021384038843
C         0.90642417597802   13.80945065454897    3.09809517605978
C         1.58840970045917   13.81954478812759    5.47103958247096
C         2.30627515290321    6.33929697688107    3.01988421281528
C         1.45928389035385    5.27404166706244    3.25807363698724
C         1.46205283298376    4.64899314703355    4.49612996187994
C         2.31871325642331    5.08935315645685    5.49004735186755
C         3.17287349011953    6.15403158969478    5.25540059935398
C         3.17325720917896    6.78560342339501    4.01720928799790
C         5.28977909484424    6.25385026062766    1.89599389309090
C         6.12133709244521    5.86656132651749    0.85900584633045
C         6.92552764929041    6.79520096319429    0.22120483576710
C         6.90326942384627    8.12038091764432    0.62647663518050
C         6.06717484469598    8.51114622910588    1.65410752204538
C         5.24813858453297    7.58589625664193    2.29391403482238
C         6.57256170726985    7.49292339759023    4.98794250574598
C         7.43120288310077    7.52979148173237    6.07277755814719
C         7.11420634578037    8.28253499381358    7.19138140916826
C         5.93055559006230    9.00241076873202    7.22626220723090
C         5.07507768844985    8.97301339296467    6.14111047675833
C         5.38678070369215    8.21974686489596    5.01429596079578
C         2.88379400970849    9.42376118503831    1.53012490751127
O         2.75327612073687    8.94222945251511    0.49132063996916
H         1.90264490551365   11.24939495784339    6.22268354831739
H         0.34183249392199   10.45778368944042    6.15236443181919
H         1.92929925459473    8.66357501202017    5.49315562335019
H         0.75548121163875    8.50118963824448    3.15251830814117
H         0.34346053911457   10.93670885850545    2.28258751578248
H        -0.32128483588894   11.91923007438789    4.50168427193972
H         3.95265814094660   12.00943743175414    5.71613371768441
H         5.98098080505778   11.22611967791628    4.21504652529280
H         5.40969413352946   11.81993862508936    1.65822881948692
H         2.98696367749670   12.89402287900552    1.58370105828807
H        -0.06941084986816   14.15996737776196    3.42940856343486
H         0.76739759520803   13.23879432882511    2.18431746318525
H         1.52431196724525   14.67788352251574    2.87609173376428
H         0.57384813774407   14.05967724794337    5.78348408873767
H         2.11704486884176   14.75001237575608    5.27059222761630
H         2.08701688868149   13.32563772583832    6.29973858753393
H         2.31538009262867    6.83004877749810    2.05436522763646
H         0.79365619614545    4.92987563743020    2.47981715518564
H         0.79716048918731    3.81885291342017    4.68384774355822
H         2.32365317849470    4.60224348935773    6.45450861066988
H         3.84039058675887    6.49224083919836    6.03594231969996
H         4.67495801819361    5.51697754055369    2.39309981371298
H         6.14041242860990    4.83174453676740    0.54867149353676
H         7.56914041546139    6.48761990484560   -0.58974856224966
H         7.53457903928171    8.84693940140594    0.13570811959457
H         6.03309161539456    9.54421958958338    1.97570920734068
H         6.82475252296113    6.90207814473668    4.11876239101789
H         8.35348134702655    6.96762508174684    6.04432198702759
H         7.78874387682725    8.30912029121506    8.03465851546414
H         5.67897654819020    9.58752045019561    8.09950715666904
H         4.14990933438863    9.53136616363657    6.15452630464136

