34
CSD_code = VELMAA | q = 0 | S = 0 | Stoichiometry = C15H16CrO2 | MND = 10
Cr        2.96330198141057    1.82597824068302    2.14819820548770
C         2.32070265379630    0.49293520673707    0.51295201803227
C         2.99336635061151   -0.35667567783030    1.40406776957602
C         2.30564001524304   -0.32888494377064    2.64064037758039
C         1.21011488475099    0.53775134608618    2.50968598903587
C         1.21080048608862    1.05404824322843    1.19085555942891
C         0.52837499225440    2.33856286463491    0.78315221962536
C         2.84664798388817    3.58314425938755    0.76416090232012
C         3.36580640668049    4.84152493733499    1.41930500484228
C         2.61864375595900    4.87275346043051    2.76629100275619
C         1.76255017118033    3.62886906784763    2.71690504655530
C         1.61058553595078    3.23831024032798    1.36378094390608
C         4.68493617374749    2.29482894586148    1.85910706144622
C         3.62629381571370    2.33660800127071    3.75040094566925
C        -0.83529889341519    2.55086499034492    1.44314250283039
C         0.37104313662713    2.50324088333212   -0.72957331881239
O         5.76747281750466    2.67350850206148    1.71498568375489
O         4.07511682792695    2.73864441351703    4.73683684096743
H         2.55124454399752    0.59094951654839   -0.53611761531635
H         3.81433203673300   -1.01384278803721    1.15780765513677
H         2.51733092689274   -0.96125838615979    3.49022103462007
H         0.44291318512665    0.67689797533750    3.25488195878839
H         3.04409304219781    3.45558308279546   -0.29337695097893
H         3.11634043289115    5.71389853329294    0.80583041460550
H         4.44864136115821    4.83438525807343    1.54490469428258
H         3.29862925331965    4.88162318240845    3.61830597644223
H         1.98406809988282    5.76161404159689    2.84867621829116
H         0.96738907304411    3.54371004831411    3.44770064278061
H        -0.78720871648981    2.45788361347090    2.52423306771368
H        -1.54529676670465    1.81443346514467    1.06983857739951
H        -1.21189761051180    3.54431892056527    1.20543755824825
H        -0.34478513821683    1.77518112316733   -1.10828628714070
H         1.30953420759867    2.36245760903050   -1.25803102881625
H         0.00087297316172    3.50145182296605   -0.95762067105876

