99
CSD_code = VELMIJ | q = 1 | S = 0 | Stoichiometry = C50H34AuF10P2S2(1+) | MND = 4
Au        4.13112529119740    8.13637893631589   20.91725406423170
P         3.45367710167371    6.28055509377524   22.16360604092515
P         3.29235934461978    9.75190807145362   22.43125991611868
S         3.11692889485222    4.39943899321748   19.92643890510718
S         6.09598762448081    9.10549666643743   23.05519457670716
C         3.95074842990163    4.62906187585855   21.53735929051084
H         5.02863283489157    4.56002351856095   21.40442535657920
H         3.60269066126171    3.87339578408473   22.25151749742007
C         4.50866124246257    9.63935815708646   23.80187284146168
H         4.62744805434602   10.61256002925827   24.28804559638159
H         4.19694202108195    8.86981677301331   24.51265981998494
C         1.65669140482437    6.13675899375972   22.05992949918019
C         1.03493667004293    6.66364485225609   20.93078072196930
H         1.62045140936910    7.20480855759632   20.19685173663555
C        -0.32084215267718    6.47144307342976   20.74038444087637
H        -0.79911520899501    6.86987331950918   19.85908877154320
C        -1.05651807328125    5.76334688211361   21.67662666278595
H        -2.11501568785309    5.61449349239610   21.52905214567409
C        -0.43540666475540    5.23003926593410   22.79541318744075
H        -1.00778762128667    4.66417742790257   23.51436271029916
C         0.92273448340014    5.40223334231213   22.98772325534341
H         1.41099707657989    4.96266632979581   23.84656273267942
C         3.91580239545516    6.20991584858255   23.90894485795926
C         3.08336968498107    6.76371121469782   24.88184124718131
H         2.14239672661596    7.21379528331411   24.59324299015594
C         3.45925415023858    6.71787593623379   26.21248593449163
H         2.80792816821616    7.13574700631930   26.96539220893368
C         4.66225757849497    6.13245340243439   26.57636541936376
H         4.94849497916656    6.09140353381757   27.61553088691871
C         5.49915558261809    5.60179654428066   25.60786258286986
H         6.43928875485927    5.15554910912277   25.89089754114131
C         5.13800169589218    5.64815260610316   24.27361347271666
H         5.80517510612081    5.25700962604781   23.52048747901607
C         4.30659842465346    3.50097869741102   18.94960707956535
C         4.11658789056066    3.55669631771451   17.57363880190082
H         3.28411573690042    4.11743017989591   17.17608043261852
C         4.98590517074738    2.88583628077460   16.73407758846210
H         4.83720172269138    2.93248864632760   15.66678415774588
C         6.04981285667918    2.17161790966817   17.26261790963156
H         6.73857605646826    1.66304338160059   16.60737486399447
C         6.22184161899681    2.10679627271453   18.63415121572672
H         7.03872080539974    1.53967747854421   19.05289836632026
C         5.34524368000463    2.75895147596224   19.48670076413067
H         5.47703028207276    2.66339040204366   20.55380210638260
C         3.43418128345968   11.48025242550589   21.91330326541874
C         2.30168343687711   12.22428406165025   21.59175416581780
H         1.31713787461646   11.79397080797047   21.70470468334782
C         2.44624071901022   13.51804222159399   21.12329576327958
H         1.56964625797666   14.09437504057712   20.87175307469727
C         3.70842345762358   14.06857679166700   20.96883696301296
H         3.81492413563606   15.07441522507220   20.59370771250563
C         4.83576893316621   13.32885584667019   21.29471372206222
H         5.81888094358140   13.75989887657431   21.18252731645635
C         4.70618703721938   12.03455815274044   21.76065360268171
H         5.58714941496654   11.45553428234600   22.00184935942120
C         1.66084797902761    9.61799567600973   23.19699467494380
C         1.46977997199767    9.78228056111358   24.56730503373697
H         2.30433808955480   10.00089748784435   25.21760884612230
C         0.19479067144695    9.67496226976027   25.09257859034336
H         0.04283079915620    9.80362030506058   26.15339713363178
C        -0.88456785747854    9.40864259934717   24.26404756572039
H        -1.87436369130162    9.32150554925642   24.68427490981321
C        -0.69631279021484    9.26605937554490   22.89881452516849
H        -1.53771987909400    9.07506782734007   22.25114192934219
C         0.57327439240393    9.37155196148613   22.36111817116205
H         0.72752656187869    9.27468032595447   21.29662201734194
C         6.98660442277998    8.41243925723362   24.43421836439662
C         7.99912830277230    7.51560094644243   24.12236128451623
H         8.18512542572014    7.26296877287899   23.09067931517107
C         8.76023190272444    6.97014530771393   25.13895951774785
H         9.55290827300045    6.27886393268566   24.89795362546270
C         8.50793306631235    7.31182762944446   26.45828791684037
H         9.10348531751664    6.88732414899527   27.25141841385967
C         7.49759327554098    8.20927833505555   26.75683559858559
H         7.30587978565151    8.49017714605790   27.78114263757541
C         6.73505511809749    8.77214728463909   25.74694423798738
H         5.96870874567374    9.49013177293283   25.99454870104919
C         5.08656238395456    7.00005756681031   19.55104319253135
C         6.23993042619254    6.33394475827023   19.92714916060255
C         7.03179852769063    5.63396876372905   19.02334215535443
C         6.67276949232215    5.61593193036560   17.67999527703429
C         5.51303813367865    6.27090740084618   17.27227456497668
C         4.74456337135795    6.95458180821390   18.20923700387822
F         6.58917972039179    6.33791211469578   21.22821116719977
F         8.11687567331112    4.98613297552097   19.44431977994689
F         7.42109872383133    4.96861094406825   16.79476436231576
F         5.14956101228342    6.24990517355796   15.99314874746343
F         3.63498792607483    7.58623786614729   17.80234767410381
C         4.59166952747630    9.66035430181338   19.68445812240648
C         5.86635832980838   10.04307512359907   19.30433998075791
C         6.08710129592294   11.15340124377445   18.49185250343214
C         5.00389447684659   11.89852837699102   18.03360567799319
C         3.70974391242110   11.51853331840870   18.38031304317130
C         3.53330887736482   10.40521360194406   19.18999817961460
F         6.92087886656568    9.34065149991276   19.73616425095370
F         7.32689235231078   11.50919617175170   18.16754723890952
F         5.20387585234246   12.97515124843370   17.28251932385159
F         2.66237378193272   12.22761659495052   17.96548594719303
F         2.28884975447582   10.04645842139567   19.56032233014497

