106
CSD_code = VELTUE | q = 0 | S = 0 | Stoichiometry = C39H60FeN2O4 | MND = 4
Fe       11.20766199333300    7.92067875064008   11.71297496276036
O        12.40781289021368    8.44502032338883   13.72292731129379
O        14.42117324218052    9.43387659875224   14.34252101485145
O        12.25558410688465    4.43572559753532   14.37449570414310
O        13.54155932951256    3.54150599086111   12.65874120258187
N         8.74379129578502    8.61264613418263   10.79189559754139
N         8.31336320735413    7.74762557735092   12.73868000280622
C        12.91069657042384    8.70149033545141   11.01534271135455
H        13.49610314662478    7.84784236907581   10.63862969525360
H        12.72477063895444    9.35682384421337   10.15171745711672
C        13.75245036819297    9.45092355631428   12.04413105767205
H        14.79423781248091    9.58742219536806   11.73171573111185
H        13.33226171987372   10.43689690966108   12.24822729512709
C        13.75579997402577    8.68599006512971   13.36162604336209
H        14.27228633970802    7.70717441500756   13.24950238312665
C        12.30977859092261    7.71777106024444   14.94231971984430
H        12.72358844001125    6.71047189124520   14.80864793305981
H        11.24368305766369    7.63415491659819   15.15145206434889
C        13.05010488682124    8.44714788550703   16.06526646395584
H        13.07389421720404    7.83018465236943   16.96262996331713
H        12.54534941865081    9.38742990075637   16.28779098718151
C        14.46642432994637    8.74926490928841   15.57760820665077
H        15.00464183808746    9.40392100334006   16.26590454458296
H        15.02895551669276    7.80895342971203   15.45765289559946
C        10.77360038262839    6.06287248354458   12.36308845390322
H        10.52465360695911    6.05449381379003   13.42520189920851
H        10.02834318181758    5.45159828721073   11.84434335858107
C        12.14429611523516    5.41549470759456   12.18723676179116
H        12.33700519928804    5.13894775700963   11.15047717263692
H        12.93533056949418    6.09639382133984   12.51055824562642
C        12.31179580874875    4.13302704158417   13.00367712025823
H        11.49763299745782    3.41036353423910   12.76646888201740
C        12.39384011506826    3.28329355853218   15.17535174226517
H        11.55258434671321    2.59588781966752   14.98493152316453
H        12.34617500947117    3.62780980693560   16.21043876161319
C        13.71404961991207    2.57424375855662   14.86892927276663
H        14.54405592046988    3.22115656009256   15.15622984099543
H        13.78325102553345    1.63209865560663   15.41132116616678
C        13.76238797928376    2.33639807999031   13.35827824805740
H        14.74020633033360    1.97353553936365   13.03586660639178
H        12.99199930279317    1.59890208137333   13.07617858877951
C         9.33210864289153    8.07199247706627   11.89817826493674
C         7.29043361917211    8.57204354796291   10.80026347417720
H         6.91938242963370    7.86667311066838   10.04498963276522
H         6.86424531939657    9.55599443413212   10.57592161921080
C         6.99248246482653    8.10100507743186   12.22198109118171
H         6.54210594042740    8.89181470181979   12.83430868299304
H         6.32292761871435    7.23708852350230   12.24091175637313
C         9.41499049814192    9.07189959074699    9.62866848354684
C         9.71651098010532    8.18540140181309    8.59075164576083
C        10.27053273034404    8.68753518616210    7.42098220183975
H        10.51613399278168    8.01594161889688    6.61263153995798
C        10.51439991614602   10.03875061052593    7.27693266075212
H        10.94219956101760   10.41625454657429    6.35964838808408
C        10.22528908166250   10.90821841344323    8.31219045869316
H        10.43929283053977   11.95835397010141    8.19207302590260
C         9.66614439522912   10.44468857383997    9.49318249345830
C         9.52586738973836    6.70017510378307    8.76383904958330
H         9.00569140444191    6.52098540204351    9.70793637755165
C        10.91316559100671    6.06871214050502    8.88204409375339
H        11.45597725170527    6.57665815860358    9.68476241090392
H        11.47137467884388    6.18010132709751    7.95565812190905
H        10.83356026585161    5.01033365669487    9.11710426805167
C         8.71223471924321    6.07428735763669    7.63111197962096
H         7.75002460904694    6.57262115413621    7.52820151337581
H         8.53531342315856    5.02112648460301    7.83890524360086
H         9.23642968161101    6.14716822386120    6.68176235689787
C         9.41360017687259   11.37169644295703   10.65690119369617
H         8.60558566039786   10.95799951384305   11.26614651440835
C        10.68423306061892   11.39747265340590   11.50918064792949
H        10.91688233680089   10.38439294704909   11.85802713602117
H        10.55567096487558   12.05348773923878   12.36569950585911
H        11.52100068101521   11.76009145745584   10.91653219673251
C         9.00569815222330   12.78503353707520   10.24211432184316
H         8.67342225241384   13.34214608047571   11.11582137165976
H         8.19101721507398   12.75749736444595    9.52123228266787
H         9.84068970174017   13.32507722867996    9.80343969166754
C         8.42682479216254    7.51838454865999   14.13266982840679
C         8.75918159138845    8.57854056692106   14.98697229797016
C         8.83957890092499    8.33437906459814   16.35230492638059
H         9.08732863100237    9.14009760601033   17.02662683028248
C         8.58757600316175    7.07946329454224   16.86928800621040
H         8.65801690272627    6.90734059458335   17.93345643050770
C         8.21746510322576    6.05224427821864   16.02382811643046
H         7.99150528210561    5.08208705537474   16.43847483332270
C         8.12549215571417    6.25389013089582   14.65410193983812
C         8.92388693008493    9.99004235010429   14.47439294164816
H         8.94959984849952    9.96379631258847   13.38382735303236
C        10.22492066669755   10.64029933327474   14.94023068050677
H        11.06941787716205   10.12992259613298   14.48930647568456
H        10.31883101069016   10.61176064064944   16.02297261117954
H        10.24532742400086   11.68398107015487   14.63417698394681
C         7.72183228807091   10.83058496131791   14.92357814525242
H         6.78327306049494   10.35926749227825   14.63685221983665
H         7.76322243971643   11.81903108813531   14.47036089110379
H         7.71970795105381   10.94908401105541   16.00481898909838
C         7.66571441409248    5.12283836992777   13.76444198762283
H         7.83217562705474    5.41981407285767   12.72607212048678
C         8.45872337396087    3.83946654850194   14.01768334458488
H         9.52331465437047    4.05264211349680   14.00028059280229
H         8.23336978473898    3.10573399679027   13.24588304286283
H         8.20708179246023    3.40268426349584   14.98120516233094
C         6.17043491520565    4.86494069300040   13.97942968402002
H         5.58978129220582    5.77269360203181   13.82813861757793
H         5.98795076453526    4.51719223965423   14.99384946487370
H         5.81426484209649    4.10501772794568   13.28676119200150

