23
CSD_code = VEMBEV | q = 0 | S = 0 | Stoichiometry = C8H8Br2N4Zn | MND = 4
Zn        5.98931576578254    2.21308354695852    9.21602064331121
Br        6.13575072077030    2.80870210304887   11.49292102307571
Br        6.54183813532555    0.64573495941675    7.58109531836721
N         3.77426015438225    2.07353789788064    9.01156455983827
N         3.12544836837011    3.17535599395678    9.27771265197077
C         1.82318579129782    3.14801861086958    9.45811742301076
H         1.36834255204097    4.10220526490796    9.68182555273884
C         1.07229334644123    1.97456286946662    9.37354796781888
H         0.00633367401141    1.98287782582542    9.53869908797723
C         1.75868681500849    0.81829780420735    9.06514930579916
H         1.26381345039485   -0.13478240355361    8.96509070791924
C         3.13765807582194    0.92210898245707    8.89076053738052
H         3.74655691988410    0.06411600328147    8.64211239099401
N         6.21049111946476    4.17633089747906    8.40602375459836
N         7.49865561895247    4.19806178201619    8.18422306833704
C         8.11799511359430    5.34274499889798    7.99823174257153
H         9.18165016764437    5.26926925681949    7.82551101816745
C         7.45316619484943    6.56958695681363    8.02875587896695
H         7.98746611323585    7.49434361357350    7.87711031070761
C         6.09433667637210    6.54003029111757    8.27000286013168
H         5.50246003518478    7.44060893845806    8.31981598291687
C         5.50598624244036    5.29128074106175    8.45784670859006
H         4.45430894873340    5.16282306504430    8.66876150481242

