72
CSD_code = VEMGEZ | q = 0 | S = 0 | Stoichiometry = C25H39CrN3O4 | MND = 9
Cr        5.19764877206899    3.54532665655871    5.82720331398236
O         6.41542091774203    0.82702722558587    5.81196811679619
O         8.06014059276971    3.43627775483505    6.65255651099983
O         3.00148828196858    5.52277241118241    6.32904214166427
O         3.36464258688966    6.29769325383564    8.39035015852863
N         6.50540070981458    4.69410235496397    2.92372583598065
N         4.48738124833057    2.63718737750032    2.61960996128417
N         3.44222063133443    2.19225932967059    8.02599981136540
C         5.89433775948725    1.86934660439291    5.79796909362187
C         6.94245441140643    3.51081987362401    6.35037209912971
C         5.41926961449798    4.60408697202504    3.80737759140878
C         4.41390475566879    3.58798459218601    3.64536691737568
C         3.36941607615780    3.82249220531378    4.58125446149842
C         3.74374795613756    4.97870602009550    5.30622519447604
C         5.00255744722908    5.47249412991976    4.86152821454953
C         3.63528585922475    5.47069017737446    7.54942470719816
C         4.57594402867167    4.36102033987668    7.73454905238345
C         4.14661047993368    3.05273772452328    7.34860458804030
C         7.49941434847093    3.63293936607209    3.00986345003275
C         7.96799674297954    3.15731262270886    1.63803473407241
C         7.04456827393927    6.01078020126852    2.63756899671719
C         6.02742913766347    6.84984553703254    1.86909141364044
C         4.30972132646843    3.17335724721965    1.28294426162393
C         2.90978222159476    3.73774357365842    1.01861768647160
C         3.98486599952250    1.30127834058333    2.86499207036970
C         4.94536372686622    0.24864762529074    2.31191849030468
C         2.73434944594387    2.52566871788438    9.25645862772447
C         1.35358760925934    3.10007590285613    8.94783515175743
C         3.28101887448336    0.83389321367047    7.53900236184966
C         4.23187233088616   -0.12350122275915    8.25201145616278
C         2.01062689383025    3.19175486554886    4.66864065475095
C         5.59204245247462    6.75415036546764    5.37616203401797
C         5.41343051946876    4.48875628623538    8.99698969856584
H         7.04790746287672    2.78853362987235    3.53472253457576
H         8.36550775485894    3.97431703492245    3.59854623503770
H         7.13207674245805    2.74710857171953    1.08125151292545
H         8.40675492355752    3.96781329124514    1.06169156517647
H         8.71918978268581    2.38210470487638    1.76317729567673
H         7.92777348250161    5.87195146404908    2.01125254618908
H         7.36936604639356    6.53914920904123    3.54334116561893
H         5.81945418575386    6.39369658704688    0.90419636108294
H         5.09130213984476    6.91956357123319    2.41700500501346
H         6.41400890248346    7.85266667863905    1.70441927272161
H         4.52545154024637    2.37898699765611    0.56591267919474
H         5.04537556087454    3.96992504801172    1.15243324273867
H         2.15018437691031    2.96652274974795    1.12944243405843
H         2.69486757767980    4.54408138311453    1.71671567967343
H         2.85218260754027    4.13150384607433    0.00698954603927
H         2.98357340127957    1.14795019958234    2.43603025330905
H         3.92563510973477    1.16228777299631    3.94615345472547
H         5.03676567502879    0.32191483263903    1.23184389878073
H         5.92825429706979    0.38242000764064    2.75431251834072
H         4.58353303960693   -0.74610577512871    2.55827392224721
H         3.31292369896160    3.26043943592081    9.81547497423475
H         2.63906894265045    1.62020752639264    9.85941263003242
H         1.44872967385183    4.03374982152980    8.39906586231571
H         0.76377650973046    2.40346562838202    8.35540904418894
H         0.82315186669015    3.30320490896354    9.87391733833845
H         3.50880581656026    0.82990448586198    6.47179271836267
H         2.24375123540882    0.52321731657293    7.69056439995091
H         5.25964035444590    0.18275912536325    8.07619003757372
H         4.04877816470378   -0.14035850635502    9.32372124340755
H         4.09930119433601   -1.12892492347566    7.86367245469632
H         1.44897445548235    3.36935284309573    3.74976925434467
H         2.05533632967471    2.11612114847134    4.82898738717000
H         1.45946810985859    3.64392394248648    5.49288170641933
H         6.62683326734645    6.62384097265618    5.69078855292529
H         5.55168420995665    7.54610515563542    4.62684765587871
H         5.02270669348013    7.09414311297720    6.24112824492776
H         6.28065460364228    5.11656086466386    8.79798305077033
H         4.84544314623641    4.96576839727294    9.79622630947622
H         5.76996508441466    3.51159929240239    9.31959715351811

