47
CSD_code = VEMHUT | q = 0 | S = 0 | Stoichiometry = C18H20N2NiO2S4 | MND = 4
C         1.96060922278655    0.91242268561261    1.60804837095653
C         0.41685006325920    2.67935059957023    2.24338063915583
H         1.07254738409250    3.23853198980372    1.57397776519713
H         0.38271276147497    3.16732018515459    3.22063945127727
C        -0.99426556820713    2.63570080825529    1.65001253952106
H        -1.66611670446096    2.09400923886304    2.33333547882909
H        -1.35936309089578    3.66595465821554    1.54062212617845
C         0.26736368656814    0.45084182859645    3.23996423991555
C         0.20601032032642    0.71886628587552    4.60102414939649
H         0.70957203202520    1.58549447090870    5.00256752054199
C        -0.48365623406618   -0.13924391472704    5.43877695208545
H        -0.52608296240227    0.06753853333934    6.49770410219037
C        -1.11100356422102   -1.26109136471205    4.92374998718873
H        -1.64635209749861   -1.92940984156051    5.58117748019013
C        -1.04922988651054   -1.52564701181786    3.56571359425709
H        -1.53795897964675   -2.39895730214219    3.16113423796340
C        -0.36408478853123   -0.67216080878868    2.72061702256208
H        -0.31635440244859   -0.86329342371267    1.66010712984552
N         0.95970072466237    1.34516361636481    2.37871608035837
O        -0.92209469408650    1.98320915475636    0.40712233395143
H        -1.77695403987829    2.02098129878926   -0.03205322870475
S         2.78328376392856    1.89273785286365    0.48949461174886
S         2.59863816283950   -0.66083302863788    1.72680584630484
Ni        3.82738148191447   -0.00002738967739    0.00063573416466
C         5.69641050780181   -0.91119140022386   -1.60504273945392
C         7.23885674547905   -2.67874007485412   -2.24211721803235
H         6.58405025624580   -3.23750317830437   -1.57152562988716
H         7.27179497880579   -3.16740315975398   -3.21920047027588
C         8.65016218231919   -2.63549672048108   -1.64947100124968
H         9.32100709047381   -2.09416265879405   -2.33398353082431
H         9.01541819545075   -3.66571620506078   -1.54007860361968
C         7.38715033401808   -0.45067006765433   -3.23981985490344
C         7.44646856212491   -0.71938754788875   -4.60082621445328
H         6.94288139558699   -1.58660069298982   -5.00115505849897
C         8.13516908825546    0.13814011792213   -5.43997871291550
H         8.17645350813860   -0.06939446785135   -6.49882240554051
C         8.76332976581602    1.26018320214233   -4.92637581738234
H         9.29774038846911    1.92817852524888   -5.58488147454217
C         8.70358523293056    1.52533552164659   -3.56837403296139
H         9.19237438157330    2.39915480606861   -3.16496695241984
C         8.01967239328389    0.67229302253170   -2.72189161158911
H         7.97304205960828    0.86417485202319   -1.66145521159072
N         6.69607313925838   -1.34442707039413   -2.37704303732843
O         8.57978344460188   -1.98200658295617   -0.40691299636502
H         9.43457565798615   -2.02183427629349    0.03223807824237
S         4.87342644369402   -1.89190782386402   -0.48703728983761
S         5.05722165705561    0.66152275858762   -1.72455237964711

