40
CSD_code = VEMHUR | q = -1 | S = 0 | Stoichiometry = C11H15B9O4Re(1-) | MND = 8
O         8.94715072288680    4.74912650267559    1.01266911221125
H         8.94358810078114    4.17702669480548    0.23687252436974
C         3.76744741615557    1.07554158478182    6.02944033890119
H         3.87994023160618    0.04421952146029    6.37452865696810
O        -0.35749197076867   -0.12392492920506    6.34405442636228
C         5.98674044306019    3.46568489877419    3.69270213884627
Re        1.85879135948156    1.09428816617812    4.56290991956748
B         4.17493387872265    1.48286211426523    4.45576654332447
H         4.72736238144775    0.68963612821809    3.76037985932302
O         2.37804165340787   -1.53667866141426    3.01099481166832
C         6.20071869841441    2.80282951057266    2.48296847538980
H         5.59023549322773    1.95335999364098    2.22187657314735
O        -0.25995272878617    1.96837167563178    2.49676509070939
C         7.17328514708509    3.21351564598245    1.59111589304183
H         7.31441189346808    2.67566477417974    0.66020706650524
B         5.25957619378819    1.87230199295593    5.83148186328407
H         6.29613059297686    1.30477035199058    5.86121566313723
B         4.24310293832398    2.23874510706796    7.20916762157337
H         4.54964055468421    1.85797510232545    8.28818151117290
C         7.96606515996791    4.31462890667924    1.87590776885041
B         2.56173479369501    2.08455916275982    6.64901761045934
H         1.82762299716391    1.66298621059502    7.48808622994197
C         7.76040528188316    5.00342933303004    3.06280758842282
H         8.36956799176428    5.86878218409371    3.27723182033389
B         3.32335283573522    2.94572113300713    4.01011730690063
H         3.24581379937619    3.32689515376791    2.88374942168135
C         6.78685440567100    4.58322918936658    3.94682170823275
H         6.64030568536235    5.14469883810137    4.85583607630282
C         4.93359038095192    3.03725918592305    4.63829779241458
B         4.98989260127377    3.54101471002207    6.30286761787488
H         5.90173434571044    4.18782407100242    6.68980215321393
C         0.47314431753627    0.33003596748872    5.67586750585559
B         3.29915914586199    3.69006558280068    6.81185031824064
H         2.96238883016406    4.46286808728805    7.64591512689134
C         2.20294081870562   -0.55060649750714    3.59626217302774
B         2.25144942742929    3.34307305659096    5.39652567308413
H         1.25730277093492    3.99140705598098    5.30207563272431
C         0.52807561115187    1.61422421519094    3.27207106419713
B         3.78863727420556    4.19589433701032    5.18411219471248
H         3.91160852549269    5.30679394191969    4.78897912713234

