49
CSD_code = VEMKUU | q = 0 | S = 0 | Stoichiometry = C18H24F2I2P2Pt | MND = 6
Pt        0.72837643008703   11.64487186951570    3.93687206819666
I        -1.30933348661743   10.10104408682743    5.00853176398457
I         0.81062986339198   13.37118710762843    5.99008611330169
P         0.91699454783258    9.88361206834788    2.41972533338590
P         2.27806452503830   10.29513406539394    5.30037002825791
F        -3.52464709919416   14.53043362618023    0.50593373317381
F         5.12044436971144   15.06981242724670    1.25505141721967
C         1.53797562739631    8.42541205140156    3.36963382268569
H         0.69992911412277    8.03341097711101    3.95494281461593
H         1.83315483752499    7.65803099246606    2.64423758906867
C         2.70008094338276    8.79136096194519    4.29052327399420
H         3.59777894034207    9.01674764287672    3.70425992558319
H         2.93834013019923    7.95977838274847    4.96120018513988
C        -0.56102966374078    9.24188973263808    1.57308884557162
H        -0.86109304404103    9.94922132781343    0.79964217134158
H        -1.38584353286072    9.11087259056825    2.27062335077378
H        -0.31003443595061    8.28234499979347    1.11804006131657
C         2.10442312900902    9.93006671617606    1.01809335860497
H         1.83861538683822    9.13431973428978    0.32215423901153
H         3.12371995909754    9.77286228185736    1.36331270000885
H         2.06030130242328   10.88739901212393    0.50185236620141
C         3.90639011767811   10.90059145846388    5.86970181168274
H         3.72393434406399   11.58411481933357    6.70040840133253
H         4.43708780542810   11.44201840222336    5.08966073601665
H         4.50822877975828   10.05907152280679    6.21534843630861
C         1.68745513392623    9.56356617496114    6.86242049772781
H         2.52406735008613    9.07765682051721    7.36653171321216
H         0.89154848657260    8.84373278243725    6.67979976896309
H         1.29239631593039   10.36085984144553    7.49464663468729
C        -0.66991624066336   12.64315712638844    2.79742776153285
C        -1.76451174259561   13.25443093927848    3.39695052524643
H        -1.89797556573166   13.24677128520626    4.46989891912231
C        -2.72821751191351   13.89346236919289    2.63382719813080
H        -3.57694260074714   14.36670306588220    3.10102468457146
C        -2.58994602736866   13.91351324471360    1.26014289237231
C        -1.51298690440495   13.31574639051403    0.63463001608874
H        -1.42472495492175   13.34765102407030   -0.44047617405837
C        -0.55768053984038   12.68294484949877    1.41269020513605
H         0.29409554332604   12.23695118806379    0.91071061530621
C         2.15962014441833   12.82433362933139    3.02617580153317
C         1.94007977877006   14.16215177275109    2.72082053357792
H         0.99865030877606   14.64180992972926    2.94874159987470
C         2.93157442716993   14.92297053876963    2.12490634956700
H         2.76375336758610   15.96171140560140    1.88926015682303
C         4.15140877173718   14.33764249933994    1.84260603568333
C         4.40387838936830   13.01606849449652    2.15112991923644
H         5.36773787849688   12.58195424260435    1.93297434757956
C         3.39775515102420   12.27042249179149    2.74568445083811
H         3.60939215007806   11.23687903563805    2.99138100046937

