55
CSD_code = VEMTAL | q = 0 | S = 0 | Stoichiometry = C24H25NO3PRh | MND = 4
C         2.01277072900189    4.61952342067983    3.75770227440047
H         2.03027718170827    4.43529069986505    4.82255480683170
C        -1.10057714556503    2.95044450071266    4.06400408631644
H        -1.67221037744260    2.09915490757264    4.45453825923790
C         2.78118788296835    1.79972838156268    5.00978658904527
H         3.30983194535456    2.18772678650327    4.15025277512779
C         3.48115345622684    1.35290441967787    6.11472025263667
H         4.56002422178570    1.39969292178194    6.12269943630392
C        -0.97464768419306    4.02783061883390    5.13659604585613
H        -0.42652732644212    3.65135701195894    6.00305300549981
H        -0.42474719021798    4.88011281810167    4.73126317524502
C         0.71626475212227    1.20333142460023    6.07835888217190
H        -0.36034425670490    1.11774211185331    6.05671065704903
C         2.61448961288908    5.98368407964643    1.87472472314305
H         3.09388348684567    6.86572518036467    1.47652902006147
C         2.12495264539287    0.71606007473432    1.62656989307339
C         2.62312807532007    5.74853322674182    3.24000731774298
H         3.10798463563453    6.44849951672672    3.90495073328321
C         1.39240396906472    3.71231453647464    2.90543110274129
C        -2.36731106471479    4.49106037189191    5.56194181465912
H        -2.91288668738571    3.65071171594780    5.99760611661803
H        -2.28066510542905    5.26511396798962    6.32744928032458
C        -3.24148633790717    3.97279282798786    3.26746274811269
H        -3.81412738471976    3.11979413634056    3.63860695132161
H        -3.77038718027702    4.38083855907784    2.40370883337404
C         2.80171189584568    0.83842781349562    7.20717276605137
H         3.34912396383285    0.49009314343324    8.07049514536495
C         1.38990169003856    3.95365527635605    1.53485805875496
H         0.91114136954449    3.22741590453014    0.88236853219227
C        -1.84952086494384    3.50590519031658    2.85320755135310
H        -1.29239342181595    4.34883857600040    2.43483822729578
H        -1.92024262779698    2.73018395378590    2.08573862399917
C        -3.14139297643554    5.03095640804273    4.36283496866970
H        -2.62681605995893    5.91004780828277    3.96827953333514
H        -4.14100908865895    5.34060655128601    4.67505485430404
C         1.38933537461589    1.75218833540950    4.99115372006210
C         1.99677056542584    5.08427982685411    1.02036924077578
H         1.99476449489020    5.26387232498101   -0.04459090908475
C         1.41972373618975    0.75737402566777    7.18294353404521
H         0.88900326429547    0.33968566882809    8.02607822605174
O        -0.04336806174065   -0.95750407090253    0.61766952424133
O        -1.60405247410327    0.28522352893490    2.29231770862447
O         3.25708622850947    0.79542860039462    1.43668650794622
P         0.50508939769692    2.22476488872372    3.47213753902424
Rh        0.34087214748151    0.57542884461713    1.96640987730975
N        -2.10145632149614   -0.69281876442005    1.53775159265424
C        -1.24984076561007   -1.32829782920180    0.66384729080711
C        -3.39772443417070   -1.01099613809019    1.65414294515603
H        -3.95371491063607   -0.43194183555375    2.37614000841869
C        -1.80687462004496   -2.35791915536929   -0.12517063172304
H        -1.14585329067965   -2.86101233259457   -0.81184231541262
C        -3.13108243381201   -2.69215809913374   -0.01204152716942
H        -3.54456376764010   -3.48128269219217   -0.62053360012029
C        -3.94695252237886   -2.00832349043257    0.89321556413557
H        -4.99030033975250   -2.25209047968255    0.99953866276215

