53
CSD_code = VEMVAM | q = 0 | S = 0 | Stoichiometry = C25H22ClFO3Ru | MND = 9
Ru        3.71200028715183    3.44428372793944    4.05269482875006
Cl        1.61328318160274    2.51160769424825    3.67112416857086
O         3.95580748748313    3.10886796906999    2.00531748229107
O         2.81260542715189    5.13170482732265    3.22917931995354
O         2.24603540019335    4.66361732086089   -0.76074547567792
F         3.86738802939033    1.92969770276919   -4.44989097870032
C         3.20598930708257    3.88957388395324    1.28901887577612
C         2.59865910711261    5.00838635170442    1.98832940109529
C         1.81749695585975    5.94161706219751    1.22944087772514
C         1.18438043722765    7.05475438902577    1.80616541313651
H         1.30684895084646    7.21303813312282    2.86624139417671
C         0.43188105042690    7.89941492467314    1.03204884648120
H        -0.05667756401117    8.75337911234364    1.47507177721213
C         0.28858205237678    7.65457516428341   -0.33750428620918
H        -0.30838583514511    8.32337019667711   -0.93868865035084
C         0.89527107603953    6.57221979648263   -0.92586708076681
H         0.79023727182631    6.36904306329342   -1.97976468659967
C         1.66967911254378    5.70047778840574   -0.14871558710834
C         3.00733146357281    3.76045273630343   -0.08313091681660
C         3.55819100265152    2.71209730234741   -0.92365159080345
C         4.19619051567070    1.59215086067505   -0.37907245844012
H         4.26694678049718    1.50171716156607    0.69193189138233
C         4.71150375665413    0.60856619769027   -1.19987386124704
H         5.19693614393997   -0.25144594506216   -0.76374511336885
C         4.61310024749727    0.70779239906177   -2.57858845543702
H         5.01382436918865   -0.04817639652277   -3.23472040634305
C         3.97440993895110    1.81606255396328   -3.10650850005251
C         5.59308390001528    2.30726008798531    4.60380240970157
C         4.54755587961467    1.83997625223146    5.42228717331978
H         4.34399260671959    0.77613702085945    5.48483857670134
C         3.78743284243038    2.74432392373704    6.21282557279026
H         3.00807183523884    2.34954538005365    6.85449698580806
C         4.06395084764036    4.12209478370537    6.20571801252262
C         5.12766593531172    4.58547894916861    5.37734552804392
H         5.38604539727804    5.63954469776439    5.39425340612481
C         5.89313632528367    3.69949772466877    4.60696181593115
H         6.73701380215113    4.06315849621698    4.03285414782698
C         6.42772784660408    1.36823554313088    3.78744435065869
H         6.00321690029500    0.36740534952081    3.78989489153370
H         7.44056011829783    1.32389508443012    4.18994298787579
H         6.48536626472131    1.71905551926899    2.75796619429127
C         3.26533494345812    5.09108984750420    7.04524573856883
H         3.66378239955429    6.09768526370446    6.87267304578256
C         1.79762017403007    5.07635876139534    6.60865814578829
H         1.24833945356315    5.87264491086318    7.10520526543662
H         1.32772097887189    4.12733388457354    6.85358461329813
H         1.72782014407020    5.21886104784388    5.53004445551305
C         3.40540401510379    4.76855088291648    8.53545603688621
H         2.88297286871605    5.51756884764013    9.12523626545897
H         4.45275399012909    4.76467557810034    8.83149253827047
H         2.97776128503638    3.79567055684352    8.76453238430314
C         3.44606305037149    2.81231953399404   -2.31564699332449
H         2.95699024171311    3.65668609350031   -2.77280977773728

