59
CSD_code = VEMVUE | q = 0 | S = 0 | Stoichiometry = C19H34Cl2Si3Ti | MND = 12
Ti        1.68833931048312    3.18891179098465    6.87596308039322
Cl        3.60379583150456    4.17966673934433    7.51238915839279
Cl        2.89271383028328    1.70130819087568    5.71745035393992
C         0.76088324728311    3.42149735610384    9.02561539139156
C        -0.19430788387760    2.77046419134679    8.21226042095446
C         0.31971020069239    1.53528360234700    7.74538772055755
C         1.62132718242243    1.37960663566886    8.33193355127595
C         1.86415502820768    2.53290528703458    9.10760137303432
Si        0.55250546632066    4.97755374225398   10.06829034830242
C         1.48345576940432    6.48371030183679    9.35122679209745
C        -1.31770934929448    5.36232878063351   10.19216671493781
C         1.24078166505576    4.58221853021055   11.80584874162521
Si       -0.73527734645284    0.26723867435609    6.82715475185148
C        -2.54801522253709    0.89564042586143    6.82418376172577
C        -0.17941147667303    0.01871162899523    5.01356224974176
C        -0.77214721077600   -1.37882251579481    7.79702700784534
Si        2.84883104220514   -0.06332355756008    8.40502619229075
C         2.39451275234665   -0.98989107586781   10.02180031124139
C         2.86483416972631   -1.31686915720902    6.96398407938867
C         4.59201316282193    0.69197130916078    8.62829323874843
C        -0.13032234405629    3.78906399100640    5.48882320014887
C         0.18690113179565    4.91305846334042    6.29087453063076
C         1.45534121391041    5.37681160487846    5.90100327042300
C         1.92996624760650    4.54017865670259    4.87181283352582
C         0.94283761961042    3.57023086600070    4.60746959945248
H        -1.20756916975364    3.11554919412584    8.05815303656723
H         2.72922785022201    2.68460758340673    9.73967874070146
H         2.43842242872664    6.17926658617305    8.92901060381185
H         1.68600403790636    7.21626540439482   10.12693942225434
H         0.91684550101844    6.98612943523400    8.57207191636567
H        -1.86951893965394    4.52205080024609   10.60187045702185
H        -1.75709367391699    5.60616860505870    9.22932674361420
H        -1.48449727871810    6.21183224634364   10.84609052597712
H         0.81274157416164    3.67042040079501   12.21153621227483
H         1.02128414487174    5.38673240805606   12.50051442236841
H         2.31895680883746    4.45802079201631   11.78043633763230
H        -2.67960388000052    1.82239085894659    6.27370840094945
H        -2.91526653059668    1.05688086132516    7.83317060506517
H        -3.19394192980207    0.15658497057566    6.36061378655618
H        -0.73501108670772    0.66283239140101    4.33689510788291
H        -0.34389173239677   -1.00464671140366    4.68980493396055
H         0.87729517494812    0.24118726064955    4.88762500470409
H         0.19631343478732   -1.86257851006881    7.83590428823840
H        -1.46894788187957   -2.06950461290577    7.33210078758982
H        -1.10326710294532   -1.22094739514652    8.81909355623017
H         3.12249934670933   -1.76806764207084   10.22434813581216
H         1.41925495235802   -1.46033164628524    9.96373471518945
H         2.38331794704361   -0.32037278504056   10.87617085227276
H         3.63305731048451   -1.05782961087804    6.24372236682942
H         1.92460506803770   -1.35894890085091    6.42778755758959
H         3.08240383493772   -2.31218186956389    7.33924585828168
H         4.73352887787015    1.55244805170154    7.97813562229124
H         5.36479492268045   -0.03155921542409    8.38761116260316
H         4.76092614716491    1.01861804970371    9.65061325096928
H        -1.08809630980888    3.29043726749216    5.44286515944101
H        -0.48619436041099    5.41777318896184    6.96980550568142
H         1.94770424310531    6.26945387422299    6.26092404393613
H         2.85897083350247    4.66512948914816    4.32920318539358
H         0.97363139920430    2.83993471714725    3.81003902002894

