61
CSD_code = VEMYUK | q = 1 | S = 0 | Stoichiometry = C18H37CoNO2P2(1+) | MND = 5
Co        8.69982496523213    2.53216907057409   13.84927450313591
N         6.60864983620815    1.38503190620448   13.73618505863476
H         6.71597739000373    0.39289567029136   13.94469823770551
P         8.12064705605162    2.77304110556829   15.99342971867222
O         7.25146447233085    4.99126113672398   13.31645528306418
P         8.82390013261170    1.80424217993576   11.74091637848232
O        11.32771088938486    1.46957874283728   14.31026753964057
C         6.42080115660472    2.02553253434030   16.09846531499443
H         6.51899591939620    1.01228883420524   16.49183912880607
H         5.81614060537674    2.60280749833068   16.80099533994989
C         5.72939128714118    1.98186540644302   14.73948342933043
H         4.78136122231461    1.43170225816843   14.82815075050173
H         5.49075139265097    2.99851652195992   14.41497960521444
C         6.10347118473313    1.52227348586133   12.37116911026539
H         5.86519893356271    2.57695898950529   12.20916164678827
H         5.18007142568304    0.94442475411461   12.22046177173595
C         7.15886002333733    1.06944723724869   11.36638942470043
H         6.85580152689033    1.33762878099277   10.35228320709852
H         7.26312142669460   -0.01578010028690   11.41774155472507
C         7.83521828014146    4.50598557050007   16.61023179034174
H         6.96774621232569    4.83599804660674   16.01965898165762
C         9.02001155410718    5.40674223429132   16.26475974012211
H         8.72758237648861    6.45220110790195   16.33213760512259
H         9.37499521821833    5.21280227690808   15.25063566499443
H         9.85057093795282    5.24724789004712   16.94610452629020
C         7.46914348425519    4.60236741419299   18.08795326864502
H         8.31681454289439    4.37014640809236   18.72628031994425
H         6.64650235228951    3.93981673115076   18.34985336715683
H         7.15822091230133    5.62122423330741   18.30986996649781
C         8.99371087302425    1.85111278767807   17.35554555552859
H         8.33520070280146    1.92892638798004   18.23081636778177
C        10.35076778788771    2.47433107690854   17.67054130483375
H        10.90032935236021    1.83039241567263   18.35423080427662
H        10.25086348681533    3.44720689901572   18.14237468914658
H        10.94465569376646    2.58974722655985   16.76583613631883
C         9.17204205560597    0.37653271386713   17.00112961159478
H         9.88621065559182    0.25682457798282   16.19063542414722
H         8.23881923272825   -0.10023145080260   16.70908224540757
H         9.55914337735581   -0.15787445493627   17.86616633646747
C         9.96710564458810    0.36009383691945   11.44131661707311
H        10.96714574437745    0.73248039789636   11.69361468080017
C         9.62464022875002   -0.78688629443757   12.39522588966179
H         8.81703142898621   -1.39867281831369   11.99898764265598
H         9.32896264047062   -0.41554945666159   13.37790470913913
H        10.49009455138634   -1.43278487345932   12.52423054017180
C         9.97524698144563   -0.13403907683310    9.99639656850529
H        10.54269864987391   -1.06122064061337    9.94370660353274
H        10.44980398314144    0.57699743973767    9.32591970063715
H         8.96792256095105   -0.33848325084492    9.63858641084446
C         9.17239610991680    2.93578601109652   10.31351263762362
H         9.09410855540972    2.32215737685255    9.40820919090701
C        10.58833192860722    3.48569902860463   10.46161533443403
H        10.79064258111505    4.21604775030155    9.68140932004447
H        11.33609600907337    2.69912224182410   10.38995357637475
H        10.69806101389383    3.97968955945271   11.42833122079245
C         8.16147508621684    4.07324868991409   10.21932992996343
H         8.32727191259563    4.80148161149028   11.00827114038825
H         7.13581107575472    3.71291852922324   10.27840686709040
H         8.28100324378742    4.58677835431182    9.26749331783244
C         7.77084877776843    3.98566685534334   13.46514824136634
C        10.22331135676982    1.74378262227672   14.19643915044409

