56
CSD_code = VEMZAQ | q = 0 | S = 0 | Stoichiometry = C24H22BN7NiO | MND = 4
Ni        6.12631116279217    8.31673384323011   20.67779680908802
B         5.46956991505265    5.30449298114269   20.61682303536274
H         5.22089899231148    4.15133509188096   20.60052453721642
N         6.29098595142848    5.70794607251049   21.86553327015539
N         7.39805608922215    6.95202284633488   23.27505743859202
N         6.29081283468535    5.74526655611154   19.38704921380707
N         7.33024228197038    7.11945727378804   18.05032652340164
N         4.19824216001909    6.17846677261539   20.61609819966198
N         3.01662067133383    8.01104134658632   20.56986127256684
N         6.63602069358774    9.78358453060906   21.07581701959355
O         7.18440880142319   10.51751102647419   21.82253142009834
C         6.70229462828820    6.96969076042006   22.11321423874712
C         6.72231788005201    4.87762888826095   22.86760586431975
C         6.57657122850389    3.51448343097680   23.09281919845478
H         6.03191826917532    2.89216898946370   22.40268346295840
C         7.15462471617833    2.98914232316230   24.23088946050346
H         7.05892840295006    1.93283884573172   24.43327093763694
C         7.86213203770860    3.78629242383731   25.13104836999175
H         8.29742104312422    3.33127125966374   26.00804471028991
C         8.01640370101679    5.14236730871721   24.92240717533358
H         8.56412047829979    5.75881059532695   25.61844735929948
C         7.43725035197620    5.67410856507077   23.78012884977936
C         6.64225503767770    7.03263018363356   19.21349052670240
C         6.75371701754806    4.99472913646470   18.33815731685015
C         6.66884204866931    3.64214416863211   18.03663570247131
H         6.15738524421899    2.95879486243506   18.69413096627119
C         7.26288137070804    3.21010941163069   16.86738024565070
H         7.21442185173197    2.16392788693019   16.60446439018884
C         7.92693744170009    4.08964169823256   16.01246336413807
H         8.37713339998414    3.70646783189973   15.10900122727126
C         8.02099389822980    5.43789010971867   16.29771454889221
H         8.53591014411445    6.11771755628237   15.63616390967812
C         7.42632162872769    5.87702789418012   17.47024676863041
C         4.27888785757426    7.52151529921150   20.59684078856501
C         2.88255737585201    5.79501796942238   20.60510347780545
C         2.26214329735166    4.55302151424985   20.61845350662633
H         2.84077814908524    3.64450324009519   20.64297910495444
C         0.88165178681746    4.52859343108508   20.59927656658544
H         0.36901258355272    3.57831332303779   20.60885700944095
C         0.12667811216403    5.70097932916486   20.56801988516810
H        -0.95079094407670    5.63313958072900   20.55387951784520
C         0.72791517988072    6.94445996127983   20.55558987260207
H         0.14313889366703    7.85134792090844   20.53253515036886
C         2.11360262490215    6.97475875090210   20.57490242837087
C         8.02646194000402    8.06851959402895   23.92589684581118
H         7.85506748567490    8.97356081080568   23.35070121821729
H         9.10225599941396    7.89857157343439   24.00818926833988
H         7.61220926928039    8.20086966696272   24.92766335162901
C         7.87841054799181    8.32634495892907   17.50097235426866
H         8.96293386049032    8.24440861086929   17.40057057590920
H         7.64074306139733    9.14835016849299   18.17943360890155
H         7.44548436788756    8.53191459277116   16.51940345064744
C         2.66754407956897    9.40254929631447   20.54057610091006
H         3.59058925644312    9.98576348775037   20.52631929109832
H         2.08589900772020    9.67112633380892   21.42523399820530
H         2.08197483294574    9.63162811379171   19.64747529412589

