41
CSD_code = VEMZIW | q = 0 | S = 0 | Stoichiometry = C18H13BrN2NiO6 | MND = 6
Ni        3.53902633686303    3.45859740221492   11.75458163443186
Br        4.94381781019257   -0.22189797478762   18.17077713367313
O         4.35987455433188    3.54071956464438   10.43017234646265
O         4.04390930239349    4.59441960675921   12.53508118887932
O         2.86017961966715    2.15948689692323   11.62433175423897
O         4.86470851804013    2.44430717673330   12.78701241674727
O         2.07351410622459    4.38044132838280   11.12734257645958
O        -0.02537542062415    4.99119699402062   11.38431542754767
N         2.22781662963046    3.37349567108339   13.58476774104469
N         2.34606068981546    4.69888798234511   17.51394538175345
C         2.55536091561121    5.08515446368490   16.22861686460894
C         1.00137945555601    4.52789745179315   17.72007478019675
C         0.30618189298528    4.13414510288111   18.85345799023864
C        -1.07015618939718    4.03671274513310   18.75519221030954
C        -1.73571953777934    4.32522176392708   17.56360126925717
C        -1.04904139403740    4.71992049248855   16.43308784484094
C         0.34024452840696    4.82321557688447   16.50292419515727
C         1.35417755816878    5.19128968919722   15.56377341066696
C         1.18206695053686    5.48111635959006   14.12056174866647
C         1.05649885179484    4.13427174191177   13.33846009552573
C         2.38038315381926    2.58629547272003   14.57285904071191
C         3.62780917320224    1.91797168449001   14.84862638799284
C         3.71573077512139    1.25996864733295   16.08351268420202
C         4.86299013927715    0.60897690754012   16.46852194341443
C         5.96873213399299    0.56384403878531   15.62049141562097
C         5.90262560768661    1.18569284993082   14.40226328834946
C         4.75219791171845    1.89541705993718   13.96426054547626
C         0.98619869466473    4.52182740903227   11.83701725854959
H         3.54147339434875    5.27260781791753   15.84913939742621
H         3.06160265967487    4.57748652799060   18.21160093679152
H         0.81941635387740    3.91323028947097   19.77699429587836
H        -1.64220578436103    3.73221644649202   19.61804490730428
H        -2.81095307825449    4.23771723530232   17.53040402616325
H        -1.57152082683654    4.94517775820472   15.51603838068146
H         0.28020556720307    6.06105766153997   13.92353350380642
H         2.05409879222829    6.01218840721172   13.73490013206190
H         0.13138207762821    3.62135308512002   13.63852297546027
H         1.55535484883477    2.37626212257566   15.26415343901237
H         2.86273369644917    1.28081959487243   16.74695226913351
H         6.86435354619449    0.04240448982310   15.92267784263732
H         6.73986598514865    1.16268445789998   13.72350731861744

