131
CSD_code = VENDAV | q = 0 | S = 0 | Stoichiometry = C60H56B2FeN12 | MND = 6
Fe       -6.09936750327070    2.87838567795715   15.34418032760230
N        -4.48712480863439    1.47086519487641   14.96745279402464
N        -3.74274125436542    1.87076030916016   13.92711755968586
N        -6.73599520788033    2.66148439923154   13.27399361075754
N        -5.67782990238652    2.48306775136648   12.47101452135718
N        -4.78491871866536    4.50228282079185   14.73727734274849
N        -4.28570940455908    4.27359796974892   13.51460344908685
C        -3.80592146198514    0.50198403090975   15.60013769765431
C        -2.58638977059236    0.29915207850116   14.93471158992359
H        -1.82102319673640   -0.40919806906659   15.17471259759094
C        -2.58261258016502    1.18698685434543   13.88269441129638
C        -1.51499500467736    1.40149039287025   12.87125761698892
H        -1.86233389613721    1.14399243532834   11.87188896643791
H        -0.65933281756405    0.77770478170919   13.11613912504749
H        -1.20064698700779    2.44301397382493   12.86357992839550
C        -4.24713248821995   -0.27033148938768   16.75583258403604
C        -3.30670280339092   -0.93640104096972   17.54396761695504
H        -2.25652180347081   -0.85969329746762   17.30943184704427
C        -3.70272069560487   -1.67437940094464   18.64274186860402
H        -2.95896776008774   -2.17447741919081   19.24726392951855
C        -5.04348156144257   -1.77440110713794   18.97510582697800
H        -5.34887127527622   -2.34792454107625   19.83824877707951
C        -5.98618899570601   -1.13730874745100   18.18676163358954
H        -7.03744017944484   -1.21745065341909   18.42512171576432
C        -5.59206520802218   -0.39878894838968   17.08835171799100
H        -6.32158319013728    0.09827609691254   16.47733932652961
C        -7.83405938559772    2.34907640242469   12.56697495333576
C        -7.44323018535638    1.95058416597201   11.27863170436190
H        -8.07370284850437    1.65190768125268   10.46722008754735
C        -6.07015946661569    2.04602341861012   11.25840696864610
C        -5.14735754066750    1.72211219646673   10.13934292961048
H        -4.61494418074705    2.60895463454793    9.79918878426470
H        -5.71981551201838    1.31729481750763    9.30889883778137
H        -4.41208276952258    0.98410717417694   10.45295037913857
C        -9.21992076634185    2.44368175267815   13.01084158879048
C       -10.21318163804266    1.72795570800785   12.33953988178774
H        -9.95057789384268    1.09183929164136   11.50879692720794
C       -11.53217674575202    1.80242294034764   12.74386630785268
H       -12.28560122732638    1.23289468850289   12.21789819966087
C       -11.89323471894582    2.59798257824859   13.81851632889317
H       -12.92479317659180    2.64888952496546   14.13549636037701
C       -10.91992899498152    3.32993741776749   14.47662585852889
H       -11.18802990161385    3.96588387284642   15.30853853107231
C        -9.60099298422437    3.25673846372669   14.07370199930199
H        -8.84425735168501    3.82150467045760   14.58462740680994
C        -4.53940507921515    5.78785878540230   15.03748676109706
C        -3.87264455952269    6.38477210395612   13.95562013611164
H        -3.52298932351284    7.39323255290936   13.87906305446479
C        -3.73357961387159    5.39420729822389   13.00989886775346
C        -3.11514117872502    5.49659497333093   11.66235159391408
H        -2.23238175654466    4.86376137562455   11.58534084847771
H        -2.82398595474792    6.52759813036725   11.47935845468454
H        -3.82162130594413    5.18871164494874   10.89437822086218
C        -4.84999350202198    6.47157172633089   16.28747058794122
C        -4.90685943680593    7.86623983350668   16.31898124588383
H        -4.74362160912412    8.43247806735303   15.41538799254217
C        -5.19786409200187    8.53428769329377   17.49276380204159
H        -5.24741979952760    9.61420287161581   17.49517937873637
C        -5.42912258997608    7.82991006970173   18.66258095672504
H        -5.66199672981101    8.35561294674972   19.57724586561512
C        -5.35318595288802    6.44782073758540   18.64746783769647
H        -5.51815410299720    5.88479524172311   19.55528835437455
C        -5.06231046386569    5.77836083222891   17.47506290377931
H        -5.00562003630052    4.70627629266607   17.46076189364274
B        -4.25767715170966    2.87463833090260   12.89096987751346
H        -3.54943203647552    2.87283645551271   11.94941556830666
N        -7.71161039081574    1.47086722941878   15.72090858487953
N        -8.45599378512124    1.87076495185888   16.76124293160820
N        -5.46273843664794    2.66148391407053   17.41436786951911
N        -6.52090410610065    2.48306798389558   18.21734646906490
N        -7.41381631066823    4.50228605208248   15.95108410167606
N        -7.91302197320263    4.27360141648758   17.17375940282106
C        -8.39281563368031    0.50198711810600   15.08822400432560
C        -9.61234826838389    0.29915857381681   15.75364947929303
H       -10.37771634611808   -0.40918995042204   15.51364853226052
C        -9.61612415211725    1.18699432312209   16.80566580718928
C       -10.68374208829632    1.40150215256439   17.81710130069875
H       -10.33640555022114    1.14400265395897   18.81647037754592
H       -11.53940663693874    0.77772023714621   17.57221871410596
H       -10.99808560173432    2.44302708500536   17.82477867232577
C        -7.95160547246858   -0.27033022654582   13.93253004664571
C        -8.89203548416245   -0.93640058814782   13.14439618263670
H        -9.94221640947668   -0.85969268830708   13.37893237445708
C        -8.49601797748969   -1.67438055139151   12.04562286826424
H        -9.23977120872622   -2.17447979804322   11.44110198055126
C        -7.15525725861286   -1.77440303311397   11.71325870372758
H        -6.84986780596251   -2.34792793589317   10.85011663549148
C        -6.21254949071038   -1.13730962582448   12.50160160165985
H        -5.16129839056720   -1.21745167502835   12.26324105613098
C        -6.60667290506023   -0.39878822354942   13.60001051021981
H        -5.87715484054483    0.09827813637434   14.21102175112816
C        -4.36467481833449    2.34907479829490   18.12138690298663
C        -4.75550484946660    1.95058240423011   19.40972986496836
H        -4.12503282027380    1.65190487462060   20.22114158231758
C        -6.12857549961999    2.04602282905096   19.42995402954457
C        -7.05137883370915    1.72211204405525   20.54901703555085
H        -7.58379132632625    2.60895501143311   20.88917118716586
H        -6.47892239081637    1.31729327116275   21.37946147432118
H        -7.78665431806479    0.98410833090476   20.23540821069231
C        -2.97881329010146    2.44367919629347   17.67752042250477
C        -1.98555246670249    1.72795447479313   18.34882340812744
H        -2.24815634291111    1.09183895934550   19.17956710686703
C        -0.66655735107451    1.80242131297848   17.94449703624437
H         0.08686700874251    1.23289259631758   18.47046540269784
C        -0.30549931301558    2.59797914237255   16.86984576281900
H         0.72605919325991    2.64888528624894   16.55286559923334
C        -1.27880496867308    3.32993255600074   16.21173485952943
H        -1.01070404799793    3.96587806740352   15.37982143076516
C        -2.59774100673731    3.25673411827938   16.61465872408985
H        -3.35447660184604    3.82150021092315   16.10373299359595
C        -7.65933003426704    5.78786235974860   15.65087563676957
C        -8.32608664410282    6.38477591026984   16.73274458559419
H        -8.67574069063691    7.39323661424279   16.80930362288045
C        -8.46514914927721    5.39421104679964   17.67846613278538
C        -9.08358238921413    5.49659857613766   19.02601579783252
H        -9.96634276155959    4.86376659746858   19.10302913959781
H        -9.37473489631255    6.52760208929762   19.20901120849335
H        -8.37709995229673    5.18871294867055   19.79398612659590
C        -7.34874491696197    6.47157443216148   14.40089061825793
C        -7.29188701812396    7.86624281927702   14.36937622656630
H        -7.45512886828849    8.43248258955269   15.27296776946181
C        -7.00088622605118    8.53428923209356   13.19559190738981
H        -6.95133739692275    9.61420472051257   13.19317326241952
C        -6.76962242289243    7.82990981921681   12.02577686714027
H        -6.53675131219339    8.35561166858052   11.11111058419840
C        -6.84554978093827    6.44782004542839   12.04089386829614
H        -6.68057705357318    5.88479295330345   11.13307517127693
C        -7.13642228615426    5.77836163576676   13.21330039271717
H        -7.19310619270001    4.70627679771027   13.22760447071462
B        -7.94105613605300    2.87464120318106   17.79739135453224
H        -8.64930126458736    2.87283950711889   18.73894564441555

