57
CSD_code = VENGUR | q = 0 | S = 0 | Stoichiometry = C20H26N4O6Zn | MND = 6
Zn       10.55599413792831   -0.00024512829882   10.72476409993527
C         8.60786593558166    4.26162526259779    8.63626690727860
C         8.31992660676712    5.10538127474682    7.56271838286541
H         7.59208718920731    5.88723572624972    7.71522401549940
C         8.94838899141991    4.94115699799395    6.34666441826636
H         8.71104965310851    5.60525362860128    5.52852378995657
C         9.88319565553203    3.92998124426983    6.17307931122071
H        10.37762416242316    3.80263971419377    5.22187739907303
C        10.17762099636862    3.09103065367390    7.22610714295584
H        10.90513468540990    2.30097501969187    7.11504371850751
C         9.55331325567517    3.23438484582455    8.46441825948751
C         9.91431805632880    2.30146621791411    9.55023510657844
C         9.40428796294889    1.92176117762382   12.88789500176905
C         9.67848776388807    0.98169717177273   14.00356040777002
H        10.03022787623316    0.02972409569910   13.62117653845803
H         8.77457795097170    0.83366337093828   14.59389559652928
H        10.43856982531195    1.40568395925960   14.65862474314178
C         8.84534204727880    3.26951263766157   13.22846873014319
H         7.83358156039546    3.36200305754697   12.83401757939238
H         9.44185896675635    4.04899426258685   12.75686411888335
H         8.82609085902776    3.42226439283227   14.30299759994546
N         9.31935120945050    2.49114486531986   10.70584978745119
H         8.31394813633571    3.79572301273788   10.43621074915399
N         9.64064183604294    1.57829301450882   11.67688268005308
O         7.96377043021060    4.46912069102132    9.79537725418037
O        10.78685145795903    1.39856931089636    9.33961342267873
O        12.66893222478523    0.66578524593026   11.42385661481664
H        13.31191815665270   -0.03738137491622   11.29543753487909
H        12.82652009907540    1.32147743082823   10.73626163941185
C        12.50422937740470   -4.26168199911983   12.81307707429650
C        12.79272742710330   -5.10497676476485   13.88682542524880
H        13.51988031833849   -5.88726386236326   13.73415448350301
C        12.16474799695908   -4.94038274554104   15.10300957722160
H        12.40093854601587   -5.60535198528264   15.92075797001113
C        11.22905866592758   -3.92978777218014   15.27629152650323
H        10.73436748359027   -3.80254826876839   16.22742717465253
C        10.93434982521407   -3.09109718566162   14.22312008906593
H        10.20722793671841   -2.30078074571106   14.33429496568218
C        11.55868852179135   -3.23448957884845   12.98483911111957
C        11.19752758872531   -2.30178676666186   11.89893845313019
C        11.70787437735795   -1.92183868538643    8.56130911169594
C        11.43320933791569   -0.98190885526496    7.44566236908575
H        11.08134245620067   -0.03003843630723    7.82815360186106
H        12.33701110360784   -0.83364837011188    6.85523101037272
H        10.67312475301318   -1.40600376410651    6.79064980903387
C        12.26681015280345   -3.26957956447873    8.22058465622130
H        13.27864514606886   -3.36191864264299    8.61493019555569
H        11.67042973059506   -4.04915973352185    8.69224144015906
H        12.28596432599956   -3.42232814605061    7.14600893467918
N        11.79256833067255   -2.49141997119643   10.74333297528156
H        12.79810640436778   -3.79604958479635   11.01302731909325
N        11.47159679279915   -1.57839879337082    9.77235405192647
O        13.14850825365287   -4.46912950930256   11.65405167078980
O        10.32525993503260   -1.39860444371383   12.10968312046445
O         8.44277154148212   -0.66613897411016   10.02609734322586
H         7.80007650825922    0.03773479587764   10.15255869434503
H         8.28457947330919   -1.32034342632128   10.71507529549555

