27
CSD_code = VENHAA | q = 0 | S = 0 | Stoichiometry = C12H8Cl2N4Pt | MND = 4
Pt        3.19626495390327   10.36071060071912    7.80123628995810
Cl        4.57047506067851    8.68951956162512    7.22348761496287
N         1.92252717843982   11.84205262915776    8.28096750073756
C         0.40812018079430   12.85084538900275    9.82412340325941
H         0.02513837484463   12.91801940561422   10.83015046398253
C        -0.11994615535120   13.65169628224618    8.80634237914783
C         1.42175850062314   12.60982143722405    7.30543144650638
H         1.84502967816710   12.47150863091709    6.31920721470283
C         0.40962391708876   13.52188654107792    7.52016581697327
H         0.02859401430594   14.11880443143599    6.70688251249482
N        -1.99461298094577   15.32088505689637    9.30936752097327
C         1.42021891117049   11.96848979643173    9.51406928561705
H         1.84263267007982   11.32853468186635   10.27924926292983
C        -1.15981724103402   14.57119126279257    9.07870506841819
Cl        1.66625596299870    9.67416396813207    6.31889672692177
N         8.98256257582283   11.88487401665287   12.03022057070083
C         8.05143127581219   11.66960876060412   11.39876317021800
C         6.18208624127042   10.21937274474584   10.77376701074854
H         6.50743053591694    9.46781351188596   11.47520162796103
N         4.62153357213035   10.91408409848563    9.10968162540453
C         6.89380137691633   11.41239514759820   10.62735054685013
C         6.43071355915422   12.35143968259079    9.70074229807216
H         6.95471567447300   13.28256564131897    9.55393446079656
C         5.29756363748189   12.05912610565805    8.97266211204018
H         4.91759457852998   12.76284304636526    8.24220850694510
C         5.06113518836665   10.01404322030117    9.99674789551602
H         4.49436875835438    9.09500434865839   10.07163766716284

