75
CSD_code = VENLUX | q = 0 | S = 0 | Stoichiometry = C36H30Br4N4Zn | MND = 4
Br        4.87480331091313    1.74768434477386   13.97261365110766
Br        7.76699107002601    0.42977571397910   19.91887288380410
Br        6.60652289509046   -2.41416480865771   16.08327640302124
Br        3.89366040870568    3.23722964638891   18.56452002571443
Zn        5.78379434777237    0.75163157018901   17.13275470565489
N         4.12041871494784    0.36027991534395   16.24669225112661
N         5.33544269151745   -0.19087826453975   18.74983847790789
N         7.40834074783304    0.23100433480016   16.24164325529948
N         6.26871131948597    2.60801847061284   17.28860169888765
C         3.72408728256417    0.72657626947120   15.03714070353216
C         2.43593755653747    0.26846561565206   14.72643196912554
H         1.90853033276074    0.44063641009180   13.80970616547907
C         2.02710231923208   -0.42886280579990   15.83983208192426
H         1.09090634263890   -0.93071513407837   15.98703420708570
C         3.08329296017678   -0.36862072237965   16.78756802861318
C         3.10229917508934   -0.93924621472629   18.06199860395441
C         4.15298596746332   -0.86084755563989   18.97845336227905
C         4.20053663473482   -1.43757398123278   20.27555516523292
H         3.41882119046303   -2.01898484473967   20.72371480578479
C         5.41891562341440   -1.11021989307044   20.82460558871430
H         5.81355623457427   -1.36732628804708   21.78705886080978
C         6.06675801470409   -0.34703711052165   19.84300958194064
C         7.77192963102684   -0.97322031879377   15.82706994574077
C         9.03991321766995   -0.98104705788331   15.22876004955973
H         9.54041317189638   -1.83624727577723   14.82094775996378
C         9.47091720444707    0.32417685467138   15.28912002163298
H        10.40136526191335    0.72033605163456   14.93228780638868
C         8.44777399558676    1.07814047638421   15.92326567989160
C         8.45887838755924    2.44798620579892   16.19435183108023
C         7.44209457287827    3.16532797936241   16.82807392163456
C         7.42512835276493    4.55752994333198   17.10882300245898
H         8.20753622483438    5.24843522478052   16.86289924283109
C         6.23434683949206    4.83321969464869   17.74057470153461
H         5.86665981289371    5.77241925110565   18.10236276935042
C         5.57162890467571    3.60030426559611   17.82115355050953
C         1.89956691235582   -1.69493688310195   18.47939025513431
C         1.80726586934438   -3.05666014597204   18.19091141370008
C         0.67409427800785   -3.74804197397562   18.59227317790473
H         0.59768405763690   -4.80343570193203   18.37259454558088
C        -0.35883851978715   -3.11530827883378   19.26851379826071
C        -0.24355252372792   -1.75923658275682   19.54283891075650
H        -1.04170817288671   -1.25520655598515   20.06901709402266
C         0.87386308842347   -1.03523101053516   19.15807019011802
C         2.91894310254556   -3.74890450101014   17.46306192879423
H         3.85482369445086   -3.65948098612602   18.01322428227027
H         3.07661388240056   -3.29899649541781   16.48364727553399
H         2.69457889618430   -4.80340565847251   17.32827998458243
C        -1.58669605461440   -3.87061429263094   19.67723105163523
H        -1.38441194946400   -4.93681062423887   19.74177093050247
H        -2.37818718453825   -3.71909725649719   18.94264279851288
H        -1.95319375865427   -3.52071491688942   20.63977904010232
C         0.99138885758371    0.42723808523481   19.46161621376342
H         0.09909179156446    0.79024305189375   19.96409709251690
H         1.13463559386575    1.00149012158206   18.54725646902461
H         1.85233641909869    0.61909489951797   20.10089535039961
C         9.65719015651102    3.20758332716186   15.77132188254022
C         9.70709744782781    3.75717994953621   14.49067631096654
C        10.83914753318517    4.46399298532764   14.11133590435769
H        10.88204048312078    4.89176211684761   13.11980039293858
C        11.91108303831349    4.63085624492151   14.97465358577934
C        11.83709181799744    4.07374508138215   16.24506254014133
H        12.66726825428439    4.19772104942052   16.92580992301791
C        10.72323130291953    3.36208671022581   16.65960679130993
C         8.55470916776364    3.58038156444179   13.54969975610853
H         8.38204988769248    2.52397438868083   13.34741553890523
H         8.74416878436059    4.08711349923930   12.60744227849503
H         7.63807989791467    3.97966353272991   13.98191554181020
C        13.12990492929759    5.39784480467483   14.56048413562253
H        14.02196571203455    4.78349886769321   14.67333003893785
H        13.25274722365874    6.27932731697220   15.18885890448131
H        13.05592851294858    5.71859912182539   13.52471841002445
C        10.65181142850517    2.76418943635622   18.03154977990913
H        11.56619767851198    2.95838259680040   18.58533958778111
H        10.50016621104367    1.68697740859488   17.97588223184200
H         9.81302153403025    3.17944974056235   18.58887190233832

