37
CSD_code = VENWIV | q = 0 | S = 0 | Stoichiometry = C12H10F6O6S2Ti | MND = 12
Ti       -0.16082134241775    0.91652857281204    4.47021085351577
S        -2.85433698820927    0.60950030271257    2.87102509197650
O        -1.64984801678300    1.15072948901840    3.59630017498183
O        -4.07562179274047    1.23815419652279    3.21334962375293
C         0.35740529621528   -1.27045984908958    5.38868171864595
F        -2.24393953735800    2.82646924782172    1.50512085282139
F        -2.76332135858068    1.25724223980558    0.11671153913111
C         0.10807627171288   -1.02965248932053    3.13277694974457
O        -2.77091517767479   -0.75865174732687    2.50476126481041
C        -0.04987417293171    3.25474640428681    3.96264667404290
C         0.14755332225416    3.16693617669991    5.34996787169978
C         1.90473811510296    2.12584900834036    4.33732921605299
C         1.01156311779947    2.56563914295960    3.32495319287620
C         1.52444724597005   -0.65745898265810    4.89358956013391
C         1.37331040156532   -0.50714807442963    3.48612282305136
C         1.34429902171187    2.44825586787247    5.58489411334859
C        -0.51447078818346   -1.49893167224326    4.30506083306701
F        -0.90876213212949    1.15981090592919    1.23204466505977
C        -2.22705661369656    1.50519350150020    1.30496310452211
S        -2.47916808055778    0.47927528121342    6.26239792719199
O        -1.04661286963639    0.88120848378850    6.14075255537585
F        -2.81108340060492    2.86737890304926    7.27877647993589
F        -2.76614364500219    2.84514161834961    5.13747336070003
O        -2.77518508447562   -0.04713110396246    7.54786891752947
O        -2.95138415117752   -0.24153275781433    5.11797888846910
F        -4.55979316455361    2.23247875331557    6.19211509609794
C        -3.24185296155178    2.19003816967601    6.20649331262116
H         1.21913319236862    2.57607008397702    2.26092005484527
H         2.15580639759183   -0.24805868225167    2.78297393763539
H         0.19437589172844   -1.59048479626302    6.41002215068428
H         2.90110867404611    1.73831945928975    4.17266133869913
H         1.81444565892814    2.31373600888895    6.55074170900990
H        -0.83158609259839    3.81237846448211    3.46663440892481
H        -0.44270402263293    3.65561737172088    6.11177635867395
H        -0.26481077148447   -1.17927369444515    2.13000154842926
H         2.43810774232311   -0.50628225795348    5.45559763476438
H        -1.46307818433800   -2.01113154627514    4.33800419717925

