29
CSD_code = VENZOF | q = 0 | S = 0 | Stoichiometry = C13H9N2O4Re | MND = 6
Re        2.60206857560684   10.99982784290000    1.44702385357294
C         3.96717758760433    9.63776689900958    1.66984614222360
O         1.24379193992536   12.79520293792431    1.10655763826596
N         3.60637957738547   12.45968942618968    2.74974628797657
C         1.52779963675601   10.30956261341769    2.92281752123331
O         0.86620165389545    9.96727176911056    3.79179732115599
C         4.68862149108601   12.09858685747802   -0.79334742957270
H         5.36311466566546   11.26123551390419   -0.73906877504504
N         3.57920932151603   12.13653907047699   -0.07163071858270
O         4.81711922345203    8.87266179385764    1.78792872292696
C         5.53026358082963   13.75495318942466    3.31586278938694
H         6.59168453026220   13.90812006905391    3.20303348050493
C         1.62257585398459    9.93577172054340    0.13881409060306
C         4.91364070158011   12.70550194643149    2.65894961815137
H         5.49141859063038   12.03577331621145    2.03480113787095
C         3.40710929969348   14.33399545601016    4.21490863616068
H         2.76535610174153   14.95190540876605    4.82288131248563
O         1.02679804368876    9.37327513559877   -0.65901279222065
C         2.87397672336004   13.25935621160438    3.52494925194939
H         1.81588212151614   13.03826891424657    3.59297394516600
C         1.72774392803995   13.57988445123478    0.26393519433146
H         1.18231355778472   14.50564064391646    0.03929245182454
C         4.76346403004525   14.59465193715279    4.10790275410517
H         5.21105213132710   15.42674335351079    4.62975838055148
C         2.93860169900916   13.32144176592898   -0.38420025235587
C         3.70400916770487   14.02712289913412   -1.33501792659924
H         3.45211130852968   14.97946638269407   -1.76050144682516
C         4.81262638949005   13.24933601203925   -1.58854217807310
H         5.61948856789012   13.46334646223018   -2.26285901117747

