36
CSD_code = VEPFIF | q = 0 | S = 0 | Stoichiometry = C15H19ClZr | MND = 12
Zr        1.62684929492796   11.37364115489018    8.44772176697188
Cl        0.43125070022944   11.36856970943270   10.46610990446262
C         1.84132458922772    8.88156739519667    8.64238212824649
C         2.34700802308180    9.25103860459519    7.37093147982761
C         3.53129306184898    9.99243791012529    7.57652752775506
C         3.74808345208998   10.09080450478178    8.96960072952291
C         2.70861426087625    9.39960710046178    9.62315118229536
C         1.48208701666019   13.83524237097513    8.78041266718933
C         1.51439904160372   13.61718645295064    7.38400152878744
C         2.79703956694960   13.11796218883537    7.05182628896912
C         3.55315019592910   13.04391304282999    8.23916221137966
C         2.73672256907758   13.46268445627810    9.30962733222319
C        -0.21219337037618   10.96859750547418    7.30289878012432
C        -0.08053652364561   11.10539663250681    5.75749219014546
C        -1.24875148326478   12.00196952753382    5.30122229385698
C        -2.27241175685432   11.90010177928715    6.42938602088206
C        -1.39374353327691   11.88792343235306    7.68484463995261
H         0.99882928952563    8.22591418449404    8.82814033521794
H         1.98637676710747    8.88762164236432    6.41594322866859
H         4.22086219177002   10.30440651520365    6.80131076815238
H         4.63223617686654   10.49187189662024    9.45178484923419
H         2.63682035259577    9.22063243924352   10.68885248131321
H         0.67495905468701   14.29584958206969    9.33788797143699
H         0.76560916088082   13.94477003088670    6.67439187589898
H         3.17877619716276   12.97661566199096    6.04749208414820
H         4.61283190808503   12.82927128547358    8.29749837125167
H         3.05106793489121   13.59298902474612   10.33951153401775
H        -0.55606243575632    9.93533107428404    7.51471816722781
H         0.88187478120269   11.53734999335999    5.44072727505910
H        -0.16566884260546   10.12349012606111    5.28048676491524
H        -0.91748085990592   13.03764221546810    5.20242089019685
H        -1.65569203576904   11.68855541083268    4.34022618157655
H        -2.98933153458374   12.72035575090158    6.41709389828270
H        -2.82091269805273   10.95962900114949    6.35059127557912
H        -1.92712647753801   11.50961858530885    8.56078089677902
H        -1.07055403564744   12.91464181103470    7.90224247845060

