35
CSD_code = VEPLOT | q = 0 | S = 0 | Stoichiometry = C9H14MoN6O5 | MND = 5
Mo       11.17546121235114    2.05490026565623    3.33703951175690
O        10.42446990440730    0.74319379357337    2.71490722767208
O        14.68687788049557    7.23711159897258    8.85051330202240
O        11.58834156638492    3.27108287685081    2.30410607521385
O        12.93617483540967    1.23521606757040    3.64258413627359
N        13.71001703255272    3.38544869514127    6.34711474907364
N        13.77332298472222    1.87882504973012    4.53318565147750
O         9.61688193017696    2.85843717094397    4.22686362816836
N        11.57778597470411    4.42895736523048    6.72216008942219
N        13.38962114622679    4.88823034247022    8.04234671868848
N         9.87803601228759    3.78295452027547    5.21931578347228
N        11.81691641677388    2.73392798922786    5.09612983398183
C        13.32604333778806    7.26926743531751    8.48751339245564
H        13.22498767378483    7.52608875552221    7.42233388346560
H        12.86679472725368    8.05030773166778    9.09485893468372
C         8.76697467329383    4.53553632448088    5.72885079133821
H         8.33929932228840    5.13554965874836    4.92386893918966
H         9.13895781775553    5.17654429925599    6.52436743836800
H         8.00002836615422    3.85827567737130    6.11347552676455
C        13.14307200617941    2.68359986116441    5.37777634790044
C        15.38885453618628    6.25448729472721    8.12537928626796
H        16.42278417467086    6.30134381314890    8.46979779706581
H        15.35047598039261    6.47928247746911    7.04889052773985
C        14.79664825717061    4.86027504242543    8.37081255167574
H        15.28684560996474    4.11171350712710    7.75200397390442
H        14.90126525572206    4.60319219352370    9.43015131853165
C        12.87923895912047    4.21783618058693    7.00863376189610
C        12.65394543182042    5.91408135190501    8.74582472656120
H        12.68583767320226    5.69184730844022    9.81763427283075
H        11.62511590220751    5.91332553089937    8.39205161332201
C        15.13255217669984    1.42374608105226    4.60831718098381
H        15.61240431578880    1.56468836025450    3.63841444299549
H        15.16017907533881    0.36218865157815    4.86790195605081
H        15.63641833675635    2.01249895915397    5.37096556631698
C        11.09426949396785    3.68573776853692    5.73840906246850

