180
CSD_code = VEPNUA | q = 0 | S = 0 | Stoichiometry = C73H96ClO7P2Rh | MND = 4
Rh       12.40305602741362   12.40467485825067    6.09594033151526
Cl       11.49602406580293   10.99512771298892    7.59448482643121
C        13.10405219284852   13.41617313766582    4.74975647798699
O        13.55853788175191   13.99288637101867    3.85958411587814
P        10.25029234823105   12.70008534432871    5.43409755591035
P        14.43743662061838   12.24107204053021    7.10799277507797
C         6.20402456959424    7.20881217172129    5.95893049976748
H         5.34314059147865    7.86193812029541    5.75560811208105
H         6.48854950970318    7.32838521767049    7.01212175533441
C        10.39948970667188   16.31924628358875   -0.27477846300826
H        11.40342862192804   16.10578792383816    0.11028671078091
H        10.06096607463851   17.27995261820197    0.13815088556687
C         8.14657275213774   16.67211252902527   10.55140393621649
H         9.14784772322319   17.10445251118693   10.43542231859178
H         8.22798186510648   15.74276090059718   11.13281985056231
C         5.82403354082370    5.75875989040908    5.66690189415703
H         5.49039747534543    5.69817983493415    4.62942645780999
H         4.98761506159317    5.48564686078404    6.31302505454938
C         7.21943132817252   17.65826501385251   11.25711344833842
H         7.36524764844772   18.65255292981184   10.83433236930612
H         6.19207902317544   17.35799491457029   11.04219979733832
C        10.42402828357341   16.37636280078616   -1.80030483937165
H        10.56901309832483   15.36163220752071   -2.17553134047332
H         9.45063509183013   16.72294442761729   -2.15081729047097
C         6.98591041920051    4.78481385810444    5.86590372330205
H         7.83432162758361    5.13612029283370    5.27702388611918
H         6.68864981962730    3.80847680809152    5.47585720397757
C        11.52797242623951   17.28694808385633   -2.33959972149951
H        11.35961743363986   17.44137330521463   -3.40757508736248
H        11.46592558513591   18.26253333428562   -1.85153018150972
C         7.41960180283813   17.68855574167302   12.77237160631251
H         7.10758933493147   16.72684609680709   13.18724644224751
H         6.76180880150805   18.45512836869298   13.18800799213464
C        12.92622628641695   16.70324463084704   -2.14140771152005
H        12.96667494887475   15.71029295580689   -2.59489753208143
H        13.12416601390718   16.58823241570204   -1.07601468711244
C         7.41308020703534    4.62399349309259    7.32297776590642
H         7.75537306758734    5.58229858195180    7.71730083069245
H         6.55703963495952    4.30224085398813    7.92185442571035
C         8.85505463794683   17.96264114865944   13.22483084721806
H         8.87030406562436   17.96066350787574   14.31770083052274
H         9.49865995961759   17.15030768882752   12.88638072850817
C         8.54461297176448    3.60747911292856    7.45957830915177
H         9.37771045467228    3.93131632254000    6.83413436894027
H         8.20748068028118    2.63565283393077    7.09033520866383
C        14.01532950165475   17.57760807045149   -2.76034542441823
H        13.93887768703465   18.59226392630292   -2.36240564530610
H        13.85072337367120   17.63375883175372   -3.83893801971884
C         9.40698089363465   19.29889884192194   12.73103234604790
H         8.66364818064669   20.07815628908640   12.91666895983501
H         9.57859320811038   19.25372460558770   11.65413676424866
C         9.01211446027083    3.46371847271406    8.90578504160514
H         8.15266540693172    3.20225345941892    9.52896584999213
H         9.38875687007393    4.42386509708265    9.26196075021241
C        10.71073401068781   19.69507128301811   13.42627753656527
H        11.00747768248676   20.68633600521925   13.07365717413276
H        10.53600893786176   19.76891243922007   14.50247463282297
C        15.42224028273909   17.03588664271938   -2.49402967278923
H        15.44005705285629   15.96527478018478   -2.71027418159037
H        16.12770317953730   17.52037515745102   -3.17309421461087
C        10.08157166246885    2.38607560108491    9.09464116494781
H        10.32096024265694    2.31978968524529   10.15899921135484
H         9.66455569289511    1.42237599500909    8.79103977023991
C        11.85600980881485   18.71624272581583   13.17293268983759
H        11.59967099363225   17.74504288471081   13.59479540886237
H        11.99538454351596   18.59071307780174   12.09640437571453
C        15.88521426226900   17.27117863687746   -1.05757701164876
H        15.14663819725242   16.86902352657403   -0.36205425797353
H        15.95767736039630   18.34666601599261   -0.87679654556946
C        11.37743229404836    2.61763618772999    8.31487447278907
H        12.04238941003338    1.77007506088284    8.50123929289007
H        11.16605004405707    2.63217920335048    7.24446185044552
C        13.16166487491712   19.20596112574641   13.79621879600336
H        13.01396533550693   19.35594123637198   14.86854493924231
H        13.41759809021616   20.17600183785417   13.36200316597730
C        17.23304378632540   16.61665617907305   -0.76176820565508
H        17.98355309084479   16.98465237686421   -1.46522932547698
H        17.14703890384865   15.53701863011018   -0.90359931067389
C        12.10082709732800    3.90354995157933    8.70739143113264
H        12.28212007669512    3.90082473721547    9.78464431912502
H        11.47446756234541    4.76628271965473    8.47735510302145
C        14.33215940988010   18.24513905005331   13.57992987767230
H        14.43171102977728   18.04621734336631   12.51135842816121
H        15.25055809326262   18.73427721239152   13.91602565523494
C        17.68594303633983   16.90292026822878    0.66870046870836
H        17.86505870617836   17.97573160631206    0.77998807788821
H        16.87538356875040   16.62787789918201    1.34603955788720
C        13.43085246257646    4.05495376568573    7.97218630059731
H        14.06660772439469    3.19183098819011    8.18396460967511
H        13.24725512703218    4.07205080106618    6.89489176595243
C        14.16814943313519   16.93047557651612   14.34189759245080
H        13.36305578010841   16.34193042901659   13.90286033733475
H        13.89859208561127   17.15537498728175   15.37636062461950
C        18.95289254056005   16.13520508760127    1.04324992572034
H        19.70407674418007   16.28957227735842    0.26529133244394
H        18.73258216328060   15.06766723399853    1.08891332477722
C        14.15615834878387    5.33242128917212    8.38400560098972
H        13.51316971619712    6.19652643781594    8.20380377809222
H        14.37668398747854    5.30450725514421    9.45327285079174
C        15.43338851489857   16.07154719750731   14.35205890446318
H        15.28077261270450   15.22924736090625   15.02913231277318
H        16.28219289593438   16.65433143178747   14.71520264160266
C        19.54889074144628   16.57504343072291    2.38185157889423
H        19.73336991581639   17.65115910073338    2.36807757281645
H        20.50134633501368   16.06522990573517    2.53535084499763
C        15.47271149024645    5.50943879732569    7.62556544176156
H        16.13366323646655    4.66059945765538    7.82340763655559
H        15.29602073484217    5.55926591999664    6.54376937667025
C        15.78712879670742   15.51319559459362   12.97597254360750
H        15.97421696868037   16.33006908039577   12.26685170098518
H        16.69757556225190   14.90147029085971   13.05005425516544
C        18.64446034552560   16.25989873186242    3.56999110090891
H        19.04531608235939   16.72652499919840    4.48196339883505
H        17.64047809690510   16.65915038081056    3.38883513744372
C         9.22537773530547   11.20429879940338    5.39301806374442
C         9.71383423912213   10.16484708328158    4.59919645003556
H        10.63879909355340   10.31507813269067    4.05145254869874
C         9.04433792224812    8.96739054193233    4.52513846674211
H         9.40622325001427    8.15565384940374    3.91309958057603
O         7.28873792242122    7.55382402976650    5.12198642521060
C         7.87421131398465    8.76934471185396    5.26613755454298
C         7.40166903347738    9.79480056490586    6.07836303163077
H         6.51111881427870    9.66385506240452    6.67342289476462
C         8.07651686952229   11.00316045283919    6.13920119672260
H         7.70658404760105   11.78586346003080    6.78547586107682
C         9.87047198076099   13.49526782184561    3.83837436754432
C         9.14664428736829   12.90271249203550    2.80901533683025
H         8.68658009259398   11.93615160534715    2.95737461032987
C         9.02532547566557   13.53547203546362    1.58994086113072
H         8.47774583464604   13.08027643720861    0.77926654726571
O         9.51934235924741   15.27921599370888    0.11012805869014
C         9.63569776138620   14.77032076592412    1.36424777702331
C        10.31759921316807   15.39015567396850    2.41004187019973
H        10.76578180678439   16.36300188468637    2.28011931862761
C        10.42997176155426   14.75083480809724    3.62778779448528
H        10.97002881943360   15.22586718998607    4.43774346661628
C         9.42478045876792   13.83261644947313    6.58872278307698
C         8.14748391905677   14.34317294060211    6.36051075698092
H         7.61418631436828   14.07099556944214    5.45974089919097
C         7.57148461632616   15.19553003802686    7.27510287501239
H         6.58458410110724   15.60189404196451    7.11568684612007
O         7.58520748587350   16.38724184566233    9.28322795592887
C         8.25110821417112   15.55351400640468    8.44517587899400
C         9.53433744898614   15.05934560611241    8.66367692392702
H        10.09153794830795   15.32127631776548    9.54936760154528
C        10.11328871780262   14.21980791365655    7.73072983147504
H        11.12578965408943   13.84774679815724    7.88832034799964
C        15.01794640360906   10.54440018195168    7.39143358877589
C        14.41754086173816    9.52597496238718    6.66272938362689
H        13.64011610944026    9.78119666261783    5.94601206234946
C        14.77612426633476    8.20550853388098    6.85546942746752
H        14.28060532166545    7.43868882383375    6.28074104030699
O        16.20388623216223    6.63313377829309    8.07331383357489
C        15.75922247946889    7.88604829797964    7.78880172908629
C        16.38367562003650    8.91557327867090    8.50035514192435
H        17.15051904527183    8.64835685303552    9.21091843604720
C        16.01467615092987   10.22779039536642    8.31039296371766
H        16.48974510539243   11.01228608612414    8.88212088596840
C        14.61174387895823   13.00170390097507    8.75760235471297
C        15.76401075829800   13.65640400146748    9.17437354725545
H        16.61862493435386   13.72275335164654    8.51557900975175
C        15.83632060010982   14.24067037847397   10.42705724867301
H        16.74612203000371   14.74412345464983   10.71624870419010
O        14.70302961208512   14.72285437187155   12.53269311501376
C        14.74933946306416   14.17224523187516   11.29373611387762
C        13.59947401523339   13.49028242631692   10.88589847168151
H        12.76951157315486   13.42976106666572   11.57272900045598
C        13.53241755493293   12.91663385607752    9.63729621162399
H        12.64175716257621   12.38505548177519    9.33103112401673
C        15.80679364856983   13.00927067983974    6.18892373480401
C        15.81340643911996   14.39642799399010    6.08885937560361
H        15.07190656389150   14.96583098929627    6.63611081060393
C        16.74257449756454   15.05540536901422    5.30922878914173
H        16.72700116689659   16.13357408884679    5.27497923603552
O        18.59779986776801   14.85647568871399    3.73635184738326
C        17.66978349608307   14.32288215100933    4.57031348971276
C        17.66285366814990   12.92921082885205    4.66604184877136
H        18.38842989034919   12.37531931087658    4.09075052957173
C        16.74459899625479   12.28120363482742    5.46452242042750
H        16.74772644616320   11.20181042172407    5.52392546480264

