198
CSD_code = VEPPAI | q = 0 | S = 0 | Stoichiometry = C79H108ClO7P2Rh | MND = 4
Rh       -7.13284204446810    3.00391299296798   17.48085769573195
P        -4.99711268216699    3.41332160808406   16.84994284823494
Cl       -6.18153635861129    1.54975047138048   18.90465768044892
O        -4.38251022979640    6.64941771698156   11.87720287118271
O        -2.23411663741567   -1.72029576764399   15.66810275441364
C        -0.97672236328533   -2.09010733030027   16.19719797260099
H        -1.00748239320926   -2.06942436486994   17.29390671797362
H        -0.20257340912066   -1.38728399775566   15.85714451904221
O        -2.01876791755950    6.73805115244371   20.79443538465652
C        -4.65340190128156    8.03773729807939   11.85061993352205
H        -3.90215757935231    8.57404606400597   12.44858250820728
H        -5.64706059759563    8.23884416579381   12.26931820008087
C        -2.59197185092659    7.17765533254762   22.01041199701118
H        -2.93366587986639    6.31825374628040   22.60374883747849
H        -3.45237062834227    7.82736257243215   21.80283373356703
P        -9.17372304302554    2.48174405114554   18.34180870305669
O       -10.13880163602348   -3.38371761438219   18.66817913284975
C        -0.65109240462929   -3.49500857473753   15.69663536333081
H         0.35321447072935   -3.75948410083417   16.03264508290034
H        -0.65342234426969   -3.47095730911853   14.60550030860237
O       -10.29492150735612    4.67285420178661   23.77953305609020
C        -1.51005189612081    7.93742490503331   22.77292759419221
H        -0.67630638532996    7.25210979035839   22.93614206985690
H        -1.14878323921402    8.75318160884243   22.14450772809727
O       -13.65621114452242    4.40677744759795   14.90774658526625
C        -4.58419440253445    8.48467285197766   10.39274474965786
H        -3.73589820520095    7.97335760908127    9.93342163542764
H        -5.48510264450911    8.15603400746589    9.87445929830264
C        -1.65977710405286   -4.54060029820182   16.17361420205414
H        -2.66431872935345   -4.16867180623844   15.96632547578546
H        -1.51593834619486   -5.45537944863296   15.59419118566098
C        -1.99679509831160    8.48505855265024   24.11448781974022
H        -1.12625896486787    8.77247281978070   24.70791538047780
H        -2.51912056740931    7.69297569728512   24.65352854025824
C        -4.39747496136049    9.99217073199415   10.23364482272661
H        -3.43512377369433   10.27560616212258   10.66741366660217
H        -4.35609688193287   10.21906042992161    9.16594913883198
C        -1.53614396285340   -4.87484759052525   17.65859121141801
H        -1.66666046894233   -3.97055450010689   18.25559467113543
H        -0.53634158100337   -5.26689977666821   17.86242112390024
C        -2.90574820676347    9.70500450928798   23.96774645867187
H        -2.38163583698025   10.45836764555335   23.37472697063606
H        -3.81254411160972    9.43014074217808   23.42565808802635
C        -5.48833964184035   10.84979528665013   10.87694111138083
H        -5.23958358348602   11.89797782856845   10.69060811590613
H        -5.48404620647589   10.70441382558337   11.95883288602842
C        -2.58530928754345   -5.89761279191015   18.08785366951250
H        -3.57333045911574   -5.49523890354892   17.85960222693082
H        -2.45776482131106   -6.81523343002240   17.50829393812961
C        -3.30104533132898   10.32595578392947   25.30902144889556
H        -3.80421067877093   11.27666037540821   25.11572525351408
H        -2.40113662591203   10.54241198285294   25.88892968762482
C        -4.23727476757781    9.43890721054943   26.12756260680853
H        -5.06924917833742    9.13536802774729   25.48992418464863
H        -3.71045948846136    8.53750154506025   26.44547722371412
C        -6.89085423029683   10.57870647119679   10.33336858010787
H        -6.84925649773356   10.50793301103423    9.24392939790201
H        -7.25939140145564    9.62661937250686   10.71634651395325
C        -2.49344411907602   -6.22512176464840   19.57679774353208
H        -1.50130095673102   -6.63380154867675   19.78490850448954
H        -2.59872083591646   -5.30479852944527   20.15613024418312
C        -7.85562670786448   11.69852155892595   10.72102486478859
H        -7.83518549790376   11.83663829636322   11.80468450684768
H        -7.50184448743703   12.62744257214089   10.26691484520831
C        -3.55073111100533   -7.23007593353775   20.03757855222455
H        -3.52738634961204   -8.10407286111488   19.38202480563120
H        -3.30025306921664   -7.56885011180715   21.04608333446549
C        -4.77263916228965   10.16069790837075   27.36382151405290
H        -5.35117552398379   11.03329240378452   27.05127478065532
H        -3.92533321827831   10.52106530296174   27.95224767728554
C        -9.29671865908269   11.44362013650381   10.27355267186360
H        -9.82391374058922   12.39964991026960   10.22320275052481
H        -9.29430289555441   11.01824583365026    9.26745235254127
C        -4.96132227148825   -6.64471231316447   20.05177059055361
H        -5.21899361703904   -6.30655509437647   19.04857985525451
H        -4.98348416320342   -5.77681214370116   20.71500544573950
C        -5.64410101788489    9.26911273329319   28.25122966101026
H        -5.08219998888300    8.37001407122753   28.51612616258348
H        -5.86858833368278    9.80173030269945   29.17847262909833
C       -10.06827690218293   10.52213034586933   11.21711923355993
H       -10.08173522231263   10.97041988910874   12.21374948335256
H        -9.56200914616141    9.55918503509972   11.29071589916196
C        -5.99823614351177   -7.66320655146568   20.51995779333698
H        -5.69548136189048   -8.05335460632399   21.49511706660328
H        -6.01799151377393   -8.50391234925532   19.82189747327594
C        -6.95390536999278    8.86337060002112   27.57984008730240
H        -7.53213621947355    9.75931587940525   27.34222082725605
H        -6.72509782308552    8.35891575041829   26.64196639815182
C       -11.50638653847578   10.31703536631566   10.74129539266490
H       -11.51048292963268    9.67243602562979    9.85960175028393
H       -11.91350603093590   11.28604967691304   10.44049816295743
O        -8.23862520597388    4.86996796125453   15.44143995612459
C        -7.82919114966086    4.15589540688687   16.25030913766350
C        -7.40546711893562   -7.07673058741128   20.64329236845829
H        -8.06316703458836   -7.83505608609243   21.07592537580922
H        -7.38382336148412   -6.22841952476422   21.33112220008513
C        -7.79722472825866    7.93487969484650   28.45275466951247
H        -8.14297048035787    8.48689280109786   29.32934668548602
H        -7.17698600096913    7.10848951157496   28.80793714012896
C       -12.42779036650663    9.72728324833178   11.80886321331740
H       -12.39377946162833   10.36048777116628   12.69891026498324
H       -13.45346198317003    9.74866461608085   11.43139616713502
C        -7.98918866776019   -6.62408628788534   19.30627245288469
H        -7.92962123234321   -7.44781965342621   18.58995323352195
H        -7.39492040259483   -5.79783606015232   18.91594411214444
C        -4.06986527679883    4.40238327409931   18.05585295546348
C        -9.00470619931084    7.36602826558741   27.70234174393537
H        -9.70158493506059    6.92344220451821   28.41687076475078
H        -9.52548478119830    8.18027292362268   27.19363911987356
C       -12.08480474013266    8.29180695289303   12.20092979616806
H       -11.08770556315004    8.25447089626798   12.64189549156197
H       -12.07904419580773    7.66388629211026   11.30733565671327
C        -9.44441644488784   -6.18160827083387   19.44330461613549
H       -10.03636972606055   -7.02368303404643   19.80856843413509
H        -9.51862624301064   -5.37892341068883   20.17863526622365
C        -4.70815111032614    4.77854495782052   19.22958573155846
H        -5.73241004371284    4.44873528406954   19.39622085079603
C        -8.59807781975191    6.30579924645348   26.68092596987105
H        -7.81249383957379    6.70817279315079   26.03866431370753
H        -8.18220220263210    5.44133910272819   27.20332356816050
C       -13.09797593617714    7.73916147470229   13.20151957336154
H       -13.09208271729561    8.36287272911846   14.09918870673419
H       -14.09981519926540    7.79773457014993   12.76873174011509
C       -10.04280386870037   -5.69213160000346   18.12313124834515
H       -11.13021129727431   -5.66072179121704   18.20876201570352
H        -9.78157700213017   -6.38064858042824   17.31740611477149
C        -4.06622950150818    5.56210590996475   20.17201798825904
H        -4.59024219736937    5.84034986123823   21.07319891539858
C        -9.75435170698385    5.85595148783508   25.79178749514712
H       -10.24731990989263    6.72524383921898   25.35270767225399
H       -10.49759200979485    5.30699908351964   26.37060729581920
C       -12.80439193555992    6.29313458775639   13.58944218443484
H       -12.82317401071312    5.65814638937225   12.70140006537326
H       -11.80648480583129    6.21883667742662   14.02606988161364
C        -9.56963124693808   -4.29098439862274   17.74527750808464
H        -8.47468073514277   -4.22956834871107   17.77902690474920
H        -9.90211699549145   -4.04638740588589   16.72629526540630
C        -2.75839838207833    5.98146115983803   19.94485853188251
C        -9.23289231543434    4.97683458671753   24.66008039042689
H        -8.44682931076718    5.52155806506711   24.11854940337681
H        -8.79970218020536    4.05124541681592   25.06505449882720
C       -13.84378486107934    5.76825889143660   14.58266605367873
H       -13.86261108794207    6.38810860179419   15.48813539402499
H       -14.83796310884162    5.80289323211255   14.12716665312341
C        -2.12347866593097    5.62420862762722   18.74986240768574
H        -1.11664498598882    5.97574428685936   18.58512877733378
C        -2.77249323946088    4.85324974176122   17.81324723929214
H        -2.28384201355199    4.60663760269981   16.88046724409777
C        -9.55600961254865    3.12121615778822   20.00238387992551
C       -10.83911891660458    3.48397284940453   20.40918406081822
H       -11.67113945729194    3.38264989270420   19.72641409623646
C       -11.05034867532177    3.98473494028284   21.67506148772346
H       -12.03649071022365    4.27851254060618   22.00010999490522
C        -9.98746440752338    4.13321233966880   22.57059618119425
C        -8.71115222797606    3.74022797321560   22.17625838676678
H        -7.87208299459252    3.80903187927978   22.85055997610790
C        -8.50472544621546    3.24790475971979   20.90175068879930
H        -7.51214407943380    2.94190213442154   20.59776639470006
C        -4.03303472395546    1.90231238242144   16.56607765762124
C        -2.78129998834660    1.63064887922636   17.09138975074893
H        -2.29353504503397    2.34849462789105   17.73410579816577
C        -2.14873602992212    0.42912208805325   16.81670850448212
H        -1.17357561996292    0.24563201749725   17.24054366564168
C        -2.76885826410647   -0.52216390439672   16.01356795281931
C        -4.04721132042102   -0.26048434757972   15.50825567818004
H        -4.52491940662758   -1.01824479615528   14.90646631163825
C       -10.48523227654584   -1.23220250185260   19.49198901864709
H       -11.11709714033729   -1.69186774104526   20.23619374590635
C        -4.66961483797064    0.93188684548816   15.78952005674547
H        -5.67355932091569    1.13249663360864   15.42313140449320
C        -9.46824950013533    0.69713005492204   18.49807470644759
C        -8.84137595749899   -0.12630929811599   17.57122723797881
H        -8.18215903387081    0.32455383746474   16.83255058390242
C        -9.03510912925671   -1.49444606307967   17.58657024082361
H        -8.53421106268885   -2.10795135791018   16.85394716652852
C        -9.86517330333105   -2.06045657593046   18.55160622086753
C       -10.29109961611712    0.13064612449827   19.46659863830329
H       -10.77319564535606    0.75934877250401   20.20140205472993
C        -4.68739123037745    4.38070244222630   15.33598481145937
C        -4.99118776608834    5.73651556894370   15.38376069067841
H        -5.31815360163306    6.16918651111995   16.32104612443606
C        -4.88377867475575    6.53600741337366   14.26323968926222
H        -5.11710723257129    7.58630859375090   14.34215822648194
C        -4.49121117309858    5.97544786678332   13.04992624245567
C        -4.18336980650468    4.61406313671476   12.99942772286445
H        -3.87530124876674    4.19608721707198   12.05361112093986
C        -4.28038126590502    3.82719468583695   14.12645259767761
H        -4.03848713292894    2.77549965964709   14.06782508286139
C       -10.61869897967165    3.03241223619037   17.38102188753577
C       -11.44424370009686    2.16609483428400   16.67255161971527
H       -11.29940468438529    1.09816517486963   16.75233313378980
C       -12.44458988572234    2.66356880402815   15.86546087283676
H       -13.09127865604126    2.00250603069731   15.30967273371860
C       -12.64135682330017    4.03984653668483   15.73466822039204
C       -11.82317768887993    4.90979276825974   16.45278328589684
H       -11.94839650755308    5.97913683432012   16.38655466542371
C       -10.82356425674983    4.40262823106846   17.25839777944714
H       -10.18008581376210    5.08013353001455   17.80625990137040

