44
CSD_code = VEPYOE | q = 0 | S = 0 | Stoichiometry = C14H26S2SiW | MND = 8
W         6.46153252915718    7.10095108898747   15.51615368825877
S         5.95035047002691    4.96862220981782   15.71329037905210
S         6.53116907356835    7.51063675338314   13.35396773738617
Si        9.44727207307416    5.54391504774959   15.17072731604288
C         8.58848586508313    7.08790430204626   15.91694710459436
C         8.75301039992115    5.02179076209331   13.46960642897834
C        11.30353793050250    5.95448370125314   14.93546388599010
C         9.33462881119554    4.11215301969285   16.43513766005691
C         4.60302681758556    8.43323924377602   15.83523338045690
C         5.71700767586602    9.31919728931382   15.92005510633867
C         6.50313909101986    8.93585325775180   17.04598701272824
C         5.83924188832358    7.84017547093223   17.69060640402024
C         4.65986830219823    7.54175496492680   16.95732815877151
C         3.46287464233105    8.56324737342677   14.86515689350266
C         5.93609371479390   10.50870823921356   15.03237217196575
C         7.62649871332961    9.74799878291112   17.62848417233930
C         6.20943544516258    7.19502380217280   18.99481498137277
C         3.58473209869085    6.59824687953353   17.41197649285176
H         3.81367054980940    8.96724663691324   13.91594267961723
H         6.90514849632362   10.96515107951370   15.22010336197844
H         8.28454741878118   10.13645166067146   16.85218284434764
H         5.59129317931126    7.59548990983551   19.80101910620121
H         2.81390685975155    6.48787351150172   16.65269138449213
H         2.70018268249856    9.23508068560535   15.26507045635288
H         3.00163366092947    7.59453624095725   14.67159486939472
H         5.16242598803319   11.25724684816990   15.21115784868587
H         5.89241177196699   10.21852259763179   13.98079351334514
H         8.22650786412362    9.16099391206998   18.32087505822453
H         7.21409718309372   10.59680218716739   18.17805267611073
H         7.25279141710564    7.37378747188188   19.24788573010658
H         6.04628714699181    6.11769469229351   18.94759932040008
H         3.12093092399208    6.97873820919705   18.32384144153383
H         3.99531725437119    5.60972787998343   17.62444181203114
H         7.69227725278017    4.77928926495118   13.53428690461543
H         8.86111948610575    5.81778591694027   12.73722886184791
H         9.27325244404399    4.14858621695899   13.08682414430453
H        11.44999317134006    6.75525085578716   14.21822005575951
H        11.76801718845441    6.25718331878683   15.86820397135445
H        11.84054943962359    5.08636850441001   14.57056213853098
H         9.89183207579582    4.33430085492999   17.34035527114125
H         8.30486536021297    3.91154008848690   16.71547310461393
H         9.74240717406308    3.19877419056528   16.01538726607983
H         8.81959165329637    7.10020323381265   16.99190553425081
H         9.04893681535637    7.98587184200568   15.47669166997345

