50
CSD_code = VEPZOG | q = 0 | S = 0 | Stoichiometry = C20H26IrNO2 | MND = 6
Ir        2.26113679528499    0.58232192694597    2.59730844712491
O         1.98351182957865    2.40287052499345    1.68402641140451
O         2.85672232140348    3.85082810877600    0.24880705024603
N         4.37427347730216    1.14654539182098    1.98037311147236
C         2.87843527114651    2.80990837100921    0.87498135110698
C         4.09765414410554    1.85407111991924    0.71382703195459
H         4.97548454948430    2.43658316835398    0.39504100526066
C         3.84267311285144    0.70335924592498   -0.25472223500536
H         3.97129233255498    1.00792224653689   -1.29075478605222
H         2.81878318463257    0.34245036618470   -0.12319075071007
C         4.85136516407504   -0.36972723703337    0.18934458606937
H         4.38914520271983   -1.35500447896055    0.21865018763588
H         5.69932558106334   -0.41909309312181   -0.49272566722408
C         5.31195193385904    0.08890678670091    1.58289785563176
H         5.32176676633663   -0.71552145131523    2.32014368858689
H         6.32902805381870    0.50321702305155    1.51854675894078
C         4.94405560741685    2.07220588986239    2.97212604489045
H         6.00079292127926    2.27064836923596    2.73517354999111
H         4.39745645054103    3.01634761474662    2.89738215620489
C         4.80871000465490    1.54212353032429    4.37215397662619
C         3.69177164768944    1.88143511097351    5.12806226924296
H         2.95286326468233    2.55210710553075    4.71540738773448
C         3.54280432923448    1.38954190930512    6.41303819598414
H         2.68294906358172    1.67120486310443    7.00226134172473
C         4.49950437936200    0.54462772515841    6.94959272273032
H         4.38255213855166    0.15833660205644    7.95133867354389
C         5.61399098420533    0.20333806776982    6.20250199968401
H         6.36653904230386   -0.44979079800970    6.61954368503342
C         5.77048914307567    0.70455048863708    4.92150949713370
H         6.65040415067391    0.44677533462667    4.34889395790015
C         2.42778604381021   -1.51885253131254    2.69625942606143
H         3.34923253363626   -1.89378015623738    2.25293273982927
C         2.51521757600821   -0.99997990519547    4.00144775262356
H         3.50295125646311   -0.98333674596189    4.45692723078177
C         1.38406227486266   -1.12606933200505    5.00730418701307
H         1.81058814701570   -1.18719441825262    6.00906095450935
H         0.85015957274546   -2.05942551766616    4.82362185992365
C         0.40998621705874    0.06757577248604    4.95057673112328
H        -0.60637085446340   -0.26136793815970    5.18787704056021
H         0.69831097351906    0.79831045643423    5.70538641586332
C         0.41232037086196    0.75757324724194    3.60520353349882
H         0.13957879666243    1.81027423645775    3.64327855752875
C         0.20178423939322    0.08860926059890    2.38789654083328
H        -0.20010118682285    0.67582021518566    1.56642756951986
C        -0.08760815379741   -1.39737357644287    2.31636934600192
H        -0.61010550870496   -1.70111052922085    3.22360481993540
H        -0.75315676568943   -1.59521639027709    1.47555086932351
C         1.20217398650112   -2.21951062017957    2.14082598367599
H         1.36996959201899   -2.39497961232223    1.07677248764026
H         1.09628804145216   -3.19975574827837    2.61653644888669

