34
CSD_code = VEPZUM | q = 0 | S = 0 | Stoichiometry = C14H16NO2Rh | MND = 6
Rh       -0.07662639443186    1.37872865437643    6.19357598169579
N         1.04252126861053   -0.35176164053048    6.09755460036182
O         0.27665176578099    1.15644480239218    8.16438184604813
O         1.23173799202398   -0.21188367920665    9.63492568187506
C         0.05003088932633    1.98949665783858    4.16850419692066
H         0.93899815916697    1.55648206817519    3.70903018754527
C        -1.05821261561619    1.16054101914176    4.34886858105617
H        -0.99362310028079    0.13089418082130    3.99272952127909
C        -2.48836036330965    1.64648649336928    4.44806243883004
H        -3.10048498204467    0.80973731810369    4.79331721637297
H        -2.84898344710763    1.92130132777641    3.45096592322780
C        -2.66561713015711    2.82793689173581    5.42069126835530
H        -2.57611734611434    3.77753100248026    4.89298232303173
H        -3.67033147646944    2.78629894664592    5.84418646412258
C        -1.65201488758725    2.78399064661161    6.54258861352169
H        -2.05091101133702    2.52415121219743    7.52299475939810
C        -0.43816503391892    3.44989460095868    6.50422740781039
H         0.03346899675180    3.69843052000988    7.45506254645952
C         0.07437545597889    4.24494409283112    5.32645703838727
H         1.12864275969766    4.46910612392132    5.50376554783872
H        -0.45674458652416    5.20068122549643    5.27434751910861
C        -0.05873570890552    3.49069705264327    3.98885913596986
H        -1.00874933183434    3.72541027518536    3.50855255075702
H         0.73300321744449    3.82723833018062    3.31711113389140
C         1.44963302751160   -1.08552673736232    5.06182137997179
H         1.15859801192346   -0.74941214497416    4.07549371788120
C         2.21259772831017   -2.23107020986755    5.20384230508336
H         2.51478042158240   -2.78438446722707    4.32839489861997
C         2.57591632558082   -2.64872973078151    6.47610902556389
H         3.16910169231396   -3.53956107816509    6.61753380354730
C         2.15903336546515   -1.88976529880368    7.55390772290622
H         2.39887423464636   -2.13971098137206    8.57588559551547
C         1.39937048971632   -0.75086916166139    7.32831583456587
C         0.93824161380573    0.12445168705639    8.50355323248026

