73
CSD_code = VEQBOI | q = 0 | S = 0 | Stoichiometry = C26H38MoN4S4 | MND = 6
Mo        7.71501569556085    5.03289474312896    3.37478968816619
S         8.29304841182516    7.39162274161261    2.27995713849764
S         9.02069133635667    4.76015579745307    1.24421912648186
S        10.07393973007469    5.60579594429941    4.47263442565487
S         7.44277972342750    6.33709800814916    5.50650219072693
N         9.84527626810061    7.04320636368212    0.16527993167688
N         9.72636570317419    7.15517067618760    6.58946799321669
N         7.83879608171162    3.43872901767467    4.08331917898988
N         6.12164578527793    5.16039229876131    2.66512280704455
C         9.12703589295977    6.47315021947401    1.13047703787062
C         9.95676765079084    8.48566439513584    0.07858220157586
C        11.09655908013715    9.00398700923397    0.95079070467034
C        10.55515715186900    6.24645519821025   -0.81448445003554
C         9.65994032981957    5.89701736008199   -1.99944165783013
C         9.15584524122126    6.43971952449340    5.62248187780272
C        11.16899714833432    7.26304904741871    6.67812398225176
C        11.69105651765394    8.40296942763277    5.80834508209166
C         8.93010200802327    7.86492467120588    7.56971524209063
C         8.57746813871713    6.96831603727221    8.75269448775875
C         7.83443917645814    2.22600213749196    4.61206931331931
C         8.72878973527005    1.23575767886367    4.14106181355426
C         8.70262468768755   -0.02078153045472    4.71348954317333
C         7.82691505383274   -0.31868015281625    5.74568840296990
C         6.94993219477070    0.65013676430006    6.20855775459225
C         6.92820273983954    1.91478197081917    5.65473852836919
C         9.65803585000066    1.59160983535799    3.02231342391142
C         5.99496470181057    2.98652464248780    6.12736974809839
C         4.90934059889278    5.15858750342714    2.13539541259533
C         3.91990899725922    6.05327986914571    2.60747442560267
C         2.66362080181854    6.02949479774718    2.03452260246559
C         2.36504771019208    5.15562165016751    1.00101251185862
C         3.33304408572521    4.27827682785395    0.53713851799724
C         4.59748918199286    4.25437055089933    1.09123886777616
C         4.27633848012564    6.98038855745645    3.72776882937809
C         5.66847314364267    3.32099291695973    0.61719116915790
H         9.01285937123277    8.92757172091802    0.40820226309744
H        10.12244115127596    8.74884249943834   -0.96788236753944
H        11.16656742526754   10.08455726349858    0.86677621764633
H        10.90911992388902    8.74745063195273    1.99042016401634
H        12.04470122585944    8.56452723475664    0.64907057706798
H        10.90075271888784    5.32807464756701   -0.33270562775050
H        11.42389307087475    6.81884868674702   -1.14643348800409
H        10.21945166229903    5.31498867226519   -2.72579437907496
H         8.81186850607140    5.30797391630447   -1.66031536957424
H         9.28938935982440    6.79870003167313   -2.48192949216197
H        11.60905433202985    6.31858688682989    6.34757114143217
H        11.43124749929326    7.42642598035678    7.72518427005115
H        12.77167578954811    8.47039364145490    5.89381875483425
H        11.43544778809287    8.21769595216440    4.76809734678105
H        11.25338488728653    9.35166944745764    6.11093198672110
H         8.01297772306728    8.21339324769243    7.08760742879438
H         9.50400584175673    8.73180197244020    7.90393630060675
H         7.99552600637691    7.52772883502500    9.47919043374336
H         7.98727368436112    6.12192286022201    8.41137323129806
H         9.47781212604377    6.59526987399402    9.23576581367100
H         9.38359282184478   -0.77821545546320    4.35086772579235
H         7.82564995203425   -1.30440908111356    6.18620397637392
H         6.26352918215242    0.41462151231609    7.00990715651325
H        10.25503391502555    2.46642710727623    3.29387831161900
H        10.32568640884115    0.76573711653563    2.79011815942725
H         9.09010146729197    1.85292365987692    2.12516873532942
H         5.23547990223716    2.57772020434870    6.78914572887003
H         6.54728463029671    3.76234609657314    6.66577611469459
H         5.51379756243565    3.46453392246965    5.26747456598015
H         1.90687712761625    6.71105992868644    2.39747966720130
H         1.37961887588593    5.15655034707378    0.55956367533357
H         3.09734785626540    3.59375140883800   -0.26590210612854
H         5.15183997356268    7.57693296077444    3.45740382800992
H         3.45110339428196    7.64847776844528    3.96080698425174
H         4.53683067105364    6.41089900173899    4.62411281932782
H         5.25911778074831    2.56303122814594   -0.04596644849869
H         6.44477927327621    3.87361345784325    0.07981638601932
H         6.14602407765961    2.83789231203671    1.47625166074381

