50
CSD_code = VEQBAV | q = 0 | S = 0 | Stoichiometry = C20H26NO2Rh | MND = 6
Rh        2.32397591457160    0.65014922432519    2.65679525777178
N         4.41952404203612    1.12875063881561    1.97865422520807
O         2.05369904468814    2.45703328750971    1.79911899582415
O         2.90066624705914    3.86648096113609    0.31386170410984
C         2.44640709295762   -1.45498570641260    2.71372914569095
H         3.36349198931667   -1.81449715153876    2.24896588360948
C         2.53878809601738   -0.97543867663692    4.01791513208968
H         3.52940350667387   -0.95721357476219    4.46954684459974
C         1.40548651323055   -1.07466237155518    5.01918563659625
H         1.83050736392369   -1.16978052169165    6.01972700289402
H         0.84022633370935   -1.98686268421361    4.81952996565887
C         0.47091907925821    0.15116880661636    4.98968100352504
H        -0.55355088781327   -0.15142507059696    5.23086627595020
H         0.78687740276791    0.85937805838849    5.75575233765458
C         0.47607976715986    0.86173816415249    3.65754089924694
H         0.26993572213271    1.93057947409868    3.71206485887895
C         0.24945701283749    0.22748364168356    2.43861616617134
H        -0.09916734158073    0.84190391697712    1.60924779607252
C        -0.06429149872856   -1.24863376205130    2.33041946169032
H        -0.57601402635340   -1.57124063518723    3.23777652806471
H        -0.74784986425792   -1.41259297096388    1.49566702540602
C         1.20895979964942   -2.08310492347411    2.10708386020991
H         1.07873896883098   -3.09058811334178    2.51745693953524
H         1.37752243403405   -2.19380725120348    1.03286113542480
C         5.32166517718618    0.05271450832520    1.54844492420346
H         5.34330739622274   -0.75196601463834    2.28578557545714
H         6.34350566786021    0.44825833926622    1.45077215012798
C         4.80572692702782   -0.39391557573341    0.16862626409542
H         4.38079426914847   -1.39627139460413    0.19321261674244
H         5.61922475566421   -0.39487630784380   -0.55632836508453
C         3.74610839551029    0.65795860021139   -0.19873859978218
H         3.76442053039509    0.93727799687447   -1.24949574085722
H         2.73966865454167    0.29418903793739    0.05540893397517
C         4.09187218417730    1.82571096718795    0.71959922128679
H         4.96764590539373    2.37081953555466    0.33506638472166
C         2.91950570643351    2.82492442707826    0.93989321410262
C         5.04460084987261    2.04769016112579    2.94272810288788
H         4.54967023375956    3.01876396288611    2.84841497844698
H         6.10970268494003    2.18117449016807    2.70029454789983
C         4.87858366945159    1.55105780617242    4.35246096241882
C         5.82688482019103    0.72712712764166    4.94392696530834
H         6.71739468954572    0.45285728973837    4.39569928858727
C         5.64262231264700    0.26070418315676    6.23466428033372
H         6.38452603428930   -0.38252805276605    6.68489848210601
C         4.51458473101175    0.62593721004055    6.94913929064005
H         4.37765522605734    0.27035139825285    7.95981040020100
C         3.56894329819863    1.45552166805407    6.36971433524985
H         2.70237005406847    1.75907748831238    6.93828482824873
C         3.74031260388839    1.90895668024425    5.07192947935669
H         3.01481051039635    2.58235170728313    4.62822339744394

