61
CSD_code = VEQCAV | q = 0 | S = 0 | Stoichiometry = C22H26Cl4MoN4S4 | MND = 6
Mo        7.78162207899056   10.46648230481912    3.34626937464218
S        10.16569060485552   11.04625396034421    4.41266242495138
S         7.54308624667986   11.76550164169688    5.46990971490311
S         8.35349675030742   12.84983781182904    2.27333567525265
S         9.07887986697455   10.22658137125059    1.22178512019983
Cl        4.06249229155236   12.52225676587879    3.46689018651753
Cl        6.15761653138674    8.13350957982903    1.29364200635496
Cl        5.45541944610706    8.83991940740617    5.40390163834237
Cl        9.84278383429231    6.75118345833747    3.22175340340163
N         9.83285663748128   12.58427658622476    6.54245729445446
N         9.89945687726707   12.51576719132048    0.14948547055444
N         6.17216357193960   10.62389982181646    2.67778601503144
N         7.94423005703835    8.85822964280436    4.01665846592542
C         9.25986605967762   11.87283162343817    5.57795822583951
C        11.27622380135539   12.69186888146706    6.62400208680092
C        11.79216786297851   13.83419280762199    5.75407266695411
C         9.04030923657746   13.28714174973340    7.53146312401435
C         8.68905702366177   12.38026291670887    8.70684244329099
C         9.18512485407573   11.94330713012348    1.11215133808766
C        10.00481419161603   13.95920249311487    0.06606398530766
C        11.14037577178386   14.47906656724677    0.94251508656807
C        10.60861872112050   11.72264048227558   -0.83453959396562
C         9.70853263832057   11.36768191552969   -2.01400632927245
C         4.96095283564627   10.30628773079568    2.26746421568330
C         4.75463924436586    9.10124048605649    1.55540654465676
C         3.50605675443989    8.72952918628155    1.10882371157646
C         2.41242456090910    9.53818057209412    1.38684326146295
C         2.56635264637736   10.71101478192814    2.11041022275584
C         3.82158498166869   11.09223007355897    2.53619336128471
C         7.62769035534561    7.64619564921435    4.42537138989483
C         8.41368548142654    6.50767035463064    4.15334503934062
C         8.03309257906193    5.25124724276058    4.57617274378481
C         6.86082997991103    5.09522824832911    5.30019426635948
C         6.05223780993909    6.18803810072342    5.58169669859993
C         6.42338065749922    7.43782672028023    5.13805281421033
H        11.71452853097891   11.74865023563202    6.28785290666219
H        11.54370492962193   12.85273866296631    7.67001162180868
H        12.87282142939237   13.90386604303222    5.83635568062940
H        11.53378463079529   13.64946769266393    4.71452460304819
H        11.35343499180831   14.78139168709425    6.05956229761220
H         8.12281024558209   13.64244437586862    7.05536516251350
H         9.61757326454953   14.14955585057366    7.87110597119769
H         8.11148179144429   12.93529298438549    9.44010272780988
H         8.09416194633622   11.53903109757299    8.36063200385870
H         9.58984927087248   12.00036093897138    9.18378638401690
H         9.05854093379206   14.39625214078173    0.39523507721082
H        10.17200790334477   14.22503140109368   -0.97936378601149
H        11.20842848254883   15.55969224035904    0.85856089970595
H        10.94923060872436   14.22237271710631    1.98131624343837
H        12.09041856193504   14.04157595690778    0.64417664990958
H        10.96293728888115   10.80656557937892   -0.35495299701469
H        11.47186234878103   12.30069355305280   -1.17073076360544
H        10.26847022584625   10.78978390679967   -2.74327981035256
H         8.86657624632162   10.77189003522722   -1.67114249279074
H         9.32954870675333   12.26693024212165   -2.49457140525861
H         3.39018562459324    7.80762859585929    0.56250992450859
H         1.43201200387572    9.24623624990129    1.04612648806562
H         1.71652671491598   11.33315870783581    2.34209033274648
H         8.65524006526011    4.40217139637109    4.34175207947102
H         6.56920441460747    4.11386929981336    5.63848044295116
H         5.13074599574751    6.07056315121232    6.12835966401007

