53
CSD_code = VEQDIE | q = 1 | S = 0 | Stoichiometry = C27H21AuClNPS(1+) | MND = 4
Au        7.40488244072579    4.31274748289256    2.31701051227993
Cl        8.13780738136048    6.12224375308384    1.10853728260725
S         4.63229921945189    1.66520552387827    4.51704916778618
P         9.55848880346809    3.55935415512265    2.33226759025681
N         5.41278582131734    4.94955079845496    2.39334034937886
C         6.65365724817806    2.79436394704255    3.36273203651359
C         7.13459584220745    1.59783955550418    3.91639686097529
C         6.15886416407376    0.89581505034547    4.56477304012742
C         5.30602320243032    2.96876504959192    3.60026469176759
C         4.61599477778922    4.11390601807395    3.09187752221343
C         3.26027396140567    4.39328128414647    3.25651190369160
C         2.74063979493136    5.54179022848241    2.69095305291575
C         3.58024287192835    6.38756031623805    1.97356018218723
C         4.91502139042344    6.05394962075758    1.84881996145021
C         9.76563403363845    2.10756369857832    1.28531725341521
C        11.05990109880897    1.69834121304654    0.95871515854695
C        11.24183604695922    0.57453016873177    0.17509688311828
C        10.14448436319260   -0.13512506995968   -0.29000925801262
C         8.85990115470362    0.28011527426356    0.02305954052425
C         8.66535977933154    1.40154317896235    0.80995836400503
C        10.79144904200437    4.74330153744151    1.76946532046055
C        10.98211477766150    4.89791154721141    0.39528073966480
C        11.88550644706927    5.83551371234249   -0.06243498373210
C        12.58856097026904    6.62224024625671    0.83905123452349
C        12.39160745694521    6.47145569632335    2.20216209916095
C        11.48861851841754    5.53670974839537    2.67642844512357
C        10.01213702098389    3.14391158166342    4.03126907382941
C        10.84380875271924    2.06997302073632    4.33030535092067
C        11.18372903362509    1.82176630873636    5.64888837253824
C        10.70079253605592    2.63662432662395    6.66035700038508
C         9.86886324695293    3.70530844284248    6.36100347779278
C         9.51937772052251    3.95950137846167    5.04832102322450
H         8.15156641726571    1.25540746316039    3.84096586737948
H         6.25749761264614   -0.04398578896138    5.07154429492971
H         2.64560062918256    3.70926286842119    3.81988326758018
H         1.69421387558323    5.77878841988865    2.80500856143131
H         3.20875157286702    7.29043146647918    1.51826904387330
H         5.61531000707489    6.67211740745718    1.30528232541182
H        11.91090417596660    2.26901033338440    1.30728904850748
H        12.24099289194319    0.25513587515135   -0.07859120402048
H        10.29190089246940   -1.00864705805297   -0.90583520809420
H         8.00772936082553   -0.26668422634068   -0.35011984440133
H         7.66477206650193    1.73749111199709    1.04988069997810
H        10.41499578739874    4.29279731139445   -0.29941873821290
H        12.03478978326653    5.96179654737036   -1.12369657778811
H        13.28743993354526    7.35985267867386    0.47581977953005
H        12.93670905678345    7.08824381321355    2.90021388104068
H        11.32876261091640    5.42168280691286    3.73955100592708
H        11.21272081649236    1.42983032522961    3.54133428161263
H        11.82714279008107    0.98844732940361    5.88593140756866
H        10.97015752053602    2.43704435851613    7.68581967510767
H         9.49197579008944    4.33730921259971    7.15038827451179
H         8.86390748900650    4.78650894982534    4.79865090848655

