53
CSD_code = VEQDEA | q = 1 | S = 0 | Stoichiometry = C27H21AuClNPS(1+) | MND = 4
Au        3.85533635924691    3.23514785112045    9.95281295520460
Cl        1.59945519938845    3.17302579965709   10.30406922338686
S         6.99285956048631    2.59109044655889    8.76411723505657
P         3.59701326578731    1.48689138417021    8.50653821412610
N         4.22634140115107    4.81061981350262   11.27391804630742
C         5.82102149594586    3.39466274297998    9.72711287176292
C         8.25472929686430    3.58247530752002    9.39953950992643
C         7.80340747993806    4.48278983305005   10.30342354275263
C         6.39839940865792    4.38451282217521   10.49714856464743
C         5.52884464388160    5.15410619494389   11.35154576501851
C         5.93511496714145    6.17715926321676   12.20588813010716
C         4.99037653053983    6.83474331997126   12.97090341199394
C         3.65474335509945    6.46312174855790   12.87014609841395
C         3.31453692379873    5.44111058796805   12.00566807169306
C         1.99816450016587    0.66439787590357    8.55747015880750
C         0.93751845267492    1.24792538669048    7.86221405599979
C        -0.31337592926495    0.66811910672287    7.92308512144805
C        -0.51201014392017   -0.47955437473804    8.67748263942938
C         0.54186543968958   -1.05371228266579    9.36965955296949
C         1.80155744351598   -0.48382394838286    9.31960028870266
C         3.82765938858962    2.01024718098967    6.80013632698601
C         3.47491604196969    1.12193407979537    5.78258202205844
C         3.66098778738433    1.48957639828675    4.46358125911251
C         4.18613898442939    2.73607689026784    4.15602097247837
C         4.52284821985711    3.62204477478403    5.16687896450759
C         4.34472685483918    3.26371324997872    6.49139742144615
C         4.83234136355187    0.23915229270313    8.92412265941519
C         5.54359416206384   -0.45828342388269    7.95453115841084
C         6.46252634258122   -1.41576872714224    8.34755593481145
C         6.67098594040165   -1.67526465879752    9.69246375824021
C         5.96439649304883   -0.97447934425422   10.65894481734751
C         5.04778118739698   -0.01341584481437   10.27866829126008
H         9.25772756004940    3.42778069195294    9.05611367544953
H         8.43680075729008    5.18683503202379   10.80979694231343
H         6.97840008504219    6.44102503629000   12.26039788767052
H         5.28797333306310    7.62794733024238   13.63924276811367
H         2.89037713537633    6.95350226173627   13.44946050756567
H         2.29398492759693    5.10718237566302   11.88404114435376
H         1.09983944644990    2.15281832339766    7.29194037007167
H        -1.13803949690381    1.11631536222233    7.39080777281878
H        -1.49390012575308   -0.92409433224908    8.72910625755407
H         0.38287031688477   -1.94514271688904    9.95688955671180
H         2.62437352619410   -0.92802212661137    9.86198358441451
H         3.04767806500945    0.15912949048774    6.03154487343506
H         3.39042548338037    0.80581606058839    3.67371180180738
H         4.32507625627803    3.02014438797846    3.12448270386180
H         4.92055337863550    4.59526704576163    4.92380315878753
H         4.59413740168845    3.95509772714757    7.28621114739355
H         5.38873593142560   -0.24575378451594    6.90678784635325
H         7.01945153777039   -1.95877372438213    7.59966090270777
H         7.38990636135440   -2.42239984707116    9.99087063633877
H         6.13133650811366   -1.17524945460270   11.70612998885313
H         4.49598919413127    0.55233311396638   11.02178942959090

