55
CSD_code = VEQFOP | q = 0 | S = 0 | Stoichiometry = C23H25Cl2N4V | MND = 5
V         4.94741132245931    5.23328735003944    2.85375537574573
Cl        6.43943476186162    4.05022470073587    3.75359319249417
Cl        4.36285883286771    4.94294979483437    0.84957709939086
N         5.84260376031012    6.53019749393258    2.60824561626835
N         3.68078715170550    3.32119570693687    3.16384994033335
N         3.66452862530689    5.91653816409970    3.97429223697626
N         1.77753158302146    5.59413674133110    5.18596426639287
C         8.19422727620599    9.94609230370500    1.82651771399489
H         7.56778752766251   10.58006483577532    2.45760773150734
H         8.99034602299854   10.56846273783560    1.41300964517025
C         8.80089044309969    8.81676118995588    2.66027939665384
H         9.40066803465923    9.24403335425560    3.47114000939027
C         9.68971132597015    7.94620582971824    1.77330942861099
H        10.50196850263535    8.54685396447805    1.35897606239532
H        10.13254318008543    7.14316371970789    2.36551007201873
C         8.85028433601521    7.35531258049932    0.64148383605913
H         9.48244378742343    6.72505311531628    0.00701602725648
C         8.24615771676038    8.48128796011298   -0.19646661134520
H         7.65558416252283    8.06058916954222   -1.01248080678918
H         9.04230360336025    9.08717147473554   -0.63380282685029
C         7.35892569490775    9.35279253550212    0.69135196038812
H         6.92781826843129   10.16307111097997    0.09360903209648
C         6.22653461728577    8.51081470887140    1.27518972573294
H         5.61842934029768    8.06605655057065    0.48324940682165
H         5.57452910876467    9.13057636542082    1.89431134683570
C         7.68366183897884    7.96836526744596    3.26421587620292
H         7.05887547509673    8.58045721919285    3.91777640851711
H         8.09139679104409    7.14678176720017    3.85858671618495
C         7.73198062398679    6.49828392944673    1.22783056640124
H         8.13795752654763    5.68379796576338    1.83498424304256
H         7.11443406238371    6.06306617113905    0.43651967715741
C         6.82529499533717    7.37523730152930    2.12933436086621
C         3.75657877352169    2.06905860611869    2.72436539186081
C         2.80317292085512    1.12008074079387    3.09012499309538
H         2.88654258049076    0.10965514643096    2.72038204954142
C         1.75791363935777    1.48255828491233    3.92430828747556
H         1.01256991426608    0.75686980486167    4.21503467577959
C         1.68478486574252    2.78577365974392    4.37751202086685
H         0.90131827509250    3.13828066349782    5.02742220239245
C         2.67620967841659    3.67608193593048    3.96756845281685
C         2.67624241286152    5.05892680778791    4.39529974278068
C         4.89735330574303    1.71377699495304    1.82785732826139
H         4.83677939616305    0.67387029435082    1.51779369543956
H         4.89112870344665    2.35444820599638    0.94473641710168
H         5.84284809361290    1.88007761875647    2.34628766569518
C         3.34645608225893    7.11135191551955    4.56779323345635
C         3.95888086414289    8.35496967948793    4.53148952794200
H         4.85890029756007    8.50032122259678    3.95248822678099
C         3.37485249588988    9.37429544207750    5.25701449755965
H         3.82609514448878   10.35578170256193    5.25177055091589
C         2.21072075696160    9.16984045593562    6.00198146391717
H         1.79137461019864    9.99845109565302    6.55329478279342
C         1.58882629536575    7.93962167959895    6.04886251977724
H         0.69034588316542    7.77535896823700    6.62181705216256
C         2.16279471040429    6.90116599358418    5.32525849566560

