41
CSD_code = VEQFUV | q = 0 | S = 0 | Stoichiometry = C19H15Cl2N4V | MND = 5
V         5.69238736076355    8.79286515899735    9.34128962327145
Cl        5.57775564489998   10.46122928804837   10.58430397475400
Cl        7.26772675407537    8.63615865338267    7.95722775703103
N         4.53691362028725    9.17081736758915    8.29258163502557
N         7.35114679028567    8.08226297214128   10.79918776475496
N         4.92952787984874    7.24057460369900    9.97826952636605
N         5.16772896171058    5.24949948369715   11.03481827526316
C         1.97271788358576   10.43956530055465    5.34103188523993
H         1.30656366806982   10.77839950575782    4.56225688334628
C         2.03303427768042   11.12316715945490    6.54797713018872
H         1.41242249669217   11.99289486795974    6.70515313893588
C         2.87891201844618   10.69906325876897    7.54988412732681
H         2.94369463475884   11.21416400821166    8.49930831678989
C         3.69547088670011    9.56763537064095    7.34836492114157
C         3.62189656431706    8.87782536394221    6.12078838705498
H         4.24920434203816    8.00644880962060    5.98653328729237
C         2.76724964373583    9.31948195673283    5.13457174688287
H         2.71546941912846    8.78972895068839    4.19489295491107
C         8.52789945608693    8.58089888968761   11.16428970368937
C         9.42537434299412    7.82699482541931   11.91978166983895
H        10.37377986448064    8.25574934226377   12.20487431837609
C         9.09288315536568    6.53600393853637   12.29645403392038
H         9.78138607910617    5.94082828467025   12.87803545339193
C         7.86761314949806    6.02296063528506   11.91501559156717
H         7.54151407184414    5.02888862767595   12.17183826128325
C         7.02534891060519    6.83919458095420   11.16230998423420
C         8.85235913983920    9.98131296826414   10.75826081911319
H         9.90838164047933   10.19158843360913   10.90734112437385
H         8.59402919880123   10.14347365532934    9.71106411920224
H         8.26599383840362   10.68122129356799   11.35561069575865
C         5.71470191726801    6.40150845957897   10.73546622079333
C         3.75975131733492    6.54004201109434    9.80546778983611
C         3.92229619761921    5.29085117951633   10.46511024732806
C         2.90199055780927    4.34758920934261   10.47229349352029
H         3.03552531637354    3.40318200563680   10.97494273172317
C         1.72907406201133    4.67313567010493    9.82398711440730
H         0.91420977676236    3.96457409857839    9.81010746997114
C         1.56358191288327    5.90697056400347    9.19066769456981
H         0.62303595775822    6.12457141963561    8.70648625083735
C         2.56506763789163    6.85861928208497    9.17294255578409
H         2.41977965175825    7.81875854526772    8.69821132090282

