43
CSD_code = VEQLIM | q = 1 | S = 0 | Stoichiometry = C15H23N2OPRe(1+) | MND = 6
Re        4.22318840628097    6.40344695248352    8.96210330917647
P         2.44997844128823    6.84424496216234   10.64084358907454
O         5.10272447520999    7.78195154040196    8.77343691780366
N         2.67430055019662    6.26899628915707    7.50958042763333
N         3.21688170449866    4.28863543645738    9.10900472428606
C         5.48954410710164    5.25070526642401    7.58743279100064
C         5.58517664045383    5.78696254890231   10.58781343604833
C         2.94652579355071    8.36007861276713   11.52064060219638
C         0.79270989907727    7.28435113364600    9.99338105058959
C         2.02852326052501    5.70534803138974   12.01041085594581
C         2.49342677609308    7.32524574096885    6.71548441712077
C         1.57109879960321    7.33621238940321    5.68696023205933
C         0.79863540696477    6.20254276190370    5.46849990711095
C         0.98575844095303    5.10438410417547    6.28682297562759
C         1.93893196130739    5.16131447387392    7.30328169439998
C         2.23796299000625    4.05109849668559    8.21178780770489
C         1.57892310288886    2.82308704237144    8.16377308138323
C         1.94103659284521    1.81946888964304    9.04281559717851
C         2.95721254797318    2.06944707239830    9.95342601676639
C         3.56201013159069    3.31357551755193    9.94777315128157
H         6.43831857931076    5.76568815474497    7.45729520013472
H         5.01388681655164    5.16554613043811    6.61006023839465
H         5.70394805134709    4.24807006507525    7.95268101449647
H         5.04987845745361    5.56030099283241   11.51047651764164
H         6.19812906761089    4.93023714237118   10.31495169795854
H         6.26766685623758    6.60758822810966   10.80478297130789
H         3.12231085326013    9.15403201121444   10.79549718586628
H         3.87886314443305    8.17415335869015   12.05191465197864
H         2.17224605171766    8.66475884336201   12.22475511531498
H         0.88720698845012    8.07136616017167    9.24617762514997
H         0.16702567219651    7.64329590868271   10.81004237711891
H         0.31706945071681    6.41701609483758    9.53641662123014
H         1.31153494060440    6.19499329387679   12.66868623875829
H         2.92200400079954    5.46009250224585   12.58051723345768
H         1.59090509958803    4.78606058139359   11.62442179578489
H         3.11688043687122    8.18841070645217    6.91119352423644
H         1.46528124411285    8.21243944984991    5.06899485653924
H         0.07045012163031    6.17467560871141    4.67383920987683
H         0.40326740399234    4.21216961961046    6.13082829237377
H         0.79616520953221    2.65022532466149    7.44469695810926
H         1.44445547308645    0.86243848906241    9.01456082607156
H         3.27961340228405    1.31623327217848   10.65308636124408
H         4.35854264980243    3.53951079865852   10.64095090256695

