31
CSD_code = VEQLAE | q = 0 | S = 0 | Stoichiometry = C12H14ClN2ORe | MND = 6
Re        1.72621508087864    4.81514632309407   14.82570303926922
Cl        0.80043120156494    5.05969385467262   12.68260564831142
O         1.01217981355363    5.70167175569414   16.01999150156318
N         3.11839207240152    3.52740400950547   13.46251696019223
N         0.86284786586315    2.91702816187544   14.59508351316213
C         4.28587030736181    3.89957722615216   12.95348073097583
C         4.94182113076030    3.18705616397005   11.96556021373011
C         4.35367750843897    2.02628136061819   11.48421402719929
C         3.15147159364309    1.61809840225880   12.02632098083776
C         2.55227398911812    2.38651259953700   13.02584214182128
C         1.29640907394796    2.02806181327150   13.67996349819007
C         0.58702243868056    0.85563278357143   13.41647430920646
C        -0.58601134392656    0.60127061265869   14.09681299235539
C        -1.01958140465789    1.52519462544179   15.04205353545657
C        -0.26470810845360    2.65894079433921   15.25864951811131
C         3.21673996568892    4.07769545431982   16.25504323257908
C         2.96863494610898    6.54833802984875   14.30687886322357
H         4.70799593738406    4.81161728732173   13.34934498934390
H         5.88437942394138    3.53883918954996   11.57899058717483
H         4.82505030479520    1.44959326674816   10.70293194788844
H         2.67728718486317    0.71853492718674   11.67055101225524
H         0.94829040791082    0.15440411738299   12.68256259597129
H        -1.15330001041413   -0.29467360248162   13.89840008394072
H        -1.93015272314943    1.36988069596524   15.59754395959547
H        -0.57206467331893    3.40028840642715   15.98526513592934
H         4.24257236773984    4.27604062843498   15.95072927943438
H         3.11176640167785    3.00119224263565   16.39361684624411
H         3.07001856847532    4.54905205130784   17.22371366498452
H         3.14018655086400    6.57212298643240   13.23062466481952
H         3.92905711699091    6.58274351128163   14.82090747448322
H         2.42562701126798    7.45896032097695   14.56162305175086

