78
CSD_code = VEQSOA | q = 0 | S = 0 | Stoichiometry = C28H42CrO5Si2 | MND = 9
Cr       10.55379595538208    4.91446786649735    5.01002922529630
Si        6.39986358640311    1.52565179954892    2.63872854159461
Si        4.96110347296193    2.39013702896490    8.08756567446015
O         7.72715502463562    4.68853854874133    6.71024360492026
O         4.45556112931246    1.64982787376092    5.09676753416891
O         9.82531966499762    7.74184954445783    5.57160184674660
O        13.16309389693235    6.18454281191313    5.65541827069467
O        10.58881055527718    5.05189014289847    7.98047646012516
C         7.29835242892931    3.37074168910887    6.40042672998103
C         7.62475926121386    2.99491216887055    4.94767838866769
C         6.62670736779280    2.32102496542268    4.35409831094461
C         5.48582386956891    2.25988300719906    5.28622953555705
C         5.78934142046672    3.09922502764514    6.48985044694510
H         5.25937130493183    4.03741547954806    6.30897140385221
C         6.96320061809466    5.76173635688929    6.21090178306337
H         7.60264344155768    6.63800362930803    6.28672901275749
H         6.06326737971548    5.93139600110259    6.81333708915085
H         6.67603577590959    5.61399987436263    5.16463468620359
C         8.11318813402745    2.46501744078647    7.32971530819239
H         7.79185875511096    2.61143075862638    8.35427817512624
H         9.16024523475451    2.74925393428403    7.27040359203139
H         7.98462322563693    1.42334678618520    7.04908028734376
C         8.90679571869317    3.39062865873521    4.36519375008045
C        10.11266133518323    2.72625712138794    4.70012048044547
H        10.07935893162401    1.87526243245925    5.37011376192693
C        11.29862229926823    3.01921389408384    4.02377767910539
H        12.18268845886705    2.41679798463767    4.19354005267966
C        11.32321665179559    4.04751100916246    3.06381340517111
H        12.22889041945925    4.23355323814157    2.49969255618323
C        10.15895766427754    4.75586756341546    2.77016360462543
H        10.15520198288495    5.50119450826032    1.98431323510473
C         8.95922269961187    4.43648670440176    3.43423140378209
H         8.03938270977508    4.92887130662875    3.13881202322746
C         8.00600376765800    1.72175804335907    1.58148367690316
H         8.36363645762785    2.75158583966028    1.67004790655171
C         9.12260194535633    0.80157423963677    2.07196298209505
H        10.05508763326132    1.02012452695051    1.55074286659835
H         8.86821623371238   -0.23768877774549    1.87995150601836
H         9.29382475510582    0.91934078989437    3.13827707385089
C         7.77158068509256    1.45477766516809    0.09674674385903
H         8.71996673868880    1.45198801879944   -0.44053233224246
H         7.14256143410862    2.22154542273251   -0.34377566835303
H         7.29549743020399    0.48940710387787   -0.05597231190200
C         6.06978184376574   -0.35997270547797    2.88939831136339
H         6.51214534614202   -0.89820272523901    2.04302598179312
C         6.74173725990526   -0.87311789194905    4.16465841267180
H         6.62040299276680   -1.95238382821745    4.24879723174818
H         6.28316237600253   -0.41349619686085    5.03653397520134
H         7.80520566180055   -0.64857406614258    4.17767144056477
C         4.58627489675465   -0.72026933697938    2.93791353408465
H         4.46541465649317   -1.79049355140679    3.10283335507806
H         4.08427433162980   -0.46339026662941    2.00980482954053
H         4.09925199386731   -0.19045576776004    3.75056343460936
C         4.88141387519554    2.50213571548122    1.95737421629838
H         4.06464751566047    2.28642994802330    2.65233536472796
C         4.40184560878851    2.10930732830516    0.56162831764890
H         3.41353034202985    2.52719179907630    0.37361330454616
H         4.34024261779277    1.03105370225763    0.44793955890174
H         5.07183757840308    2.49233052970184   -0.20313686737561
C         5.13000699352065    4.01029549292546    2.00171434411238
H         4.24569182050771    4.55214732359329    1.66941391014516
H         5.95831538456390    4.28481591526009    1.35047486113217
H         5.36384044720930    4.33391516883902    3.01404288458474
C         5.28096100047723    0.51757781209190    8.23947040052230
H         4.67588857390108    0.09719096836514    9.03684236179251
H         6.31757137667920    0.28129172504011    8.45848556231694
H         5.00650421495965    0.00771250242839    7.32107545645521
C         3.09293189984476    2.70918000587570    7.88326107507542
H         2.52980074048741    2.27010297534761    8.70118712143962
H         2.72839882517972    2.27405432884919    6.95838106129024
H         2.86456460081829    3.77161688118118    7.86307706356879
C         5.60223279754061    3.35667560261986    9.60665334962126
H         4.77213654802135    3.70666553378055   10.21151256929067
H         6.19072398717065    4.22463473519993    9.32552879065316
H         6.22003880998371    2.73422491741275   10.24592861369904
C        10.05541257195123    6.63586892563012    5.31858122383724
C        12.16902294668886    5.66720575478607    5.37143690385779
C        10.52369010703613    4.93428071544104    6.83400774169681

