67
CSD_code = VEQTAN | q = 0 | S = 0 | Stoichiometry = C26H34CrO5Si | MND = 9
Cr       -4.93253482421957    3.90303354163019    1.33772224051961
Si       -2.43107987111230    7.00088871070041    4.96972343696863
C        -6.51261279673326    4.19526299746455    2.90917430977920
H        -7.36070634692467    4.86801109070597    2.95390204413236
C        -6.67391706989957    2.90497486398011    2.40859685943222
H        -7.64204921261758    2.57805204174285    2.04954137628561
C        -5.58894136854947    2.00737540672299    2.41441951555404
H        -5.73216675902795    0.98864686302547    2.07441793478812
C        -4.36443403378402    2.39851149379126    2.95822464916589
H        -3.54993034395781    1.68849162348408    3.03994358227228
C        -4.20842833388464    3.70058269788794    3.46809775578313
H        -3.27711517369035    3.97795262573214    3.94513326827955
C        -5.28256719354176    4.60340518133930    3.49374107038106
C        -3.28132068625747    4.24405789259087    0.64658745299614
O        -2.26147581787089    4.44725705788774    0.14520203462644
C        -5.15490019394289    3.20055157663345   -0.32724861582537
O        -5.26178636195832    2.81765052677132   -1.41260067712766
C        -5.38916434739781    5.42177002271667    0.43976875361791
O        -5.67973254184277    6.34535896268113   -0.18750312061344
C        -5.13675224191214    5.95205656047262    4.06211679602022
C        -6.12388693908239    6.55588506664572    4.75555425662035
O        -7.27703206954992    5.88955066197344    5.14899905317398
C        -6.12359736659742    7.99226385669222    5.09332122428330
H        -5.27730777149748    8.52566799795152    4.68733601783892
C        -6.69207484764449    8.47583340670103    6.40418000537735
H        -7.08837403947488    7.73754249372744    7.08445279020897
H        -6.19885585808668    9.30332426843862    6.89160891293151
C        -7.44137051146562    8.72632665039827    5.14045113678079
H        -7.46966076550222    9.72689864423594    4.73857276524097
H        -8.33304506398121    8.14706408924268    4.96099270728070
C        -7.10732781766693    4.80634284509457    6.03452085929564
H        -8.10979458940179    4.44309808670874    6.25675571738334
H        -6.62366152797280    5.12580297239476    6.96349069164716
H        -6.52142161159464    3.99221498756953    5.59524175692060
C        -3.86365971776545    6.64019430967117    3.73562525276894
O        -3.17540328858034    7.20904429116219    1.44976108526928
C        -3.54503831661131    6.88880924036327    2.50603514585830
C        -1.72193396058488    8.69851620143618    4.39314792775264
H        -1.49324047224053    8.58374979360687    3.32812407745963
C        -2.75707360727258    9.81857647018244    4.50062301783620
H        -2.32617594412974   10.76195510615450    4.16873155262713
H        -3.09683153200400    9.94521811869679    5.52601721138727
H        -3.61567096489110    9.60630938150384    3.86910472786796
C        -1.12296762608159    5.58382336845396    4.79581992911632
H        -1.64581792629024    4.63395148120221    4.95694179958629
C        -0.42668413230436    9.12566765169518    5.08167771846783
H        -0.11366217506301   10.10183902321221    4.71313218933128
H         0.37465975775592    8.42343935412437    4.87288668404658
H        -0.55202432473596    9.19705205766535    6.15822312502198
C         0.00493889148363    5.61756114239202    5.82888217827696
H         0.66237834408028    4.76019083242313    5.68845045264001
H        -0.38524929624338    5.57795027135335    6.84210032574955
H         0.60495858742067    6.51634374779060    5.73059641231164
C        -0.53070940421010    5.54355507039892    3.38704831025351
H         0.14410608231151    4.69530149811109    3.28206147347580
H         0.03484863054409    6.44868530922525    3.18246258433824
H        -1.30740345171302    5.45226439531913    2.63220571149958
C        -3.23802452480549    6.96028679375284    6.72063973214820
H        -4.21300129190275    7.44590154101639    6.64905407480992
C        -3.48766398085116    5.52613230156458    7.18786224919763
H        -4.04597848033233    5.52464415010893    8.12354669612995
H        -2.55150423009004    5.00168498064024    7.35904502332312
H        -4.05978819014757    4.97208953198059    6.44829559788953
C        -2.44189282718813    7.71939302803346    7.77972004831499
H        -2.93653303240119    7.64315188477735    8.74758116954098
H        -2.36640047128026    8.77265589967081    7.52530884157055
H        -1.43723082518356    7.31895400655063    7.88374911215507

