47
CSD_code = VEQVEU | q = 0 | S = 0 | Stoichiometry = C18H22N2O4Pt | MND = 4
Pt        3.54610601529763    4.03585625454345   11.62902377385350
C         3.18813463458843    5.27032766783909   13.19943829751157
H         2.50019472707508    4.89381051788442   13.95819824545218
H         2.76849866868586    6.20916104602564   12.81654750637923
H         4.13122550192432    5.50467351288058   13.70891278243572
C         3.13223387472747    2.46207303760278   12.84032725556283
H         3.30578045036876    2.61580261112806   13.90648145219597
H         3.75074300959575    1.61153514132230   12.52744873177453
H         2.07932106588685    2.17636796219684   12.72347905156947
N         3.65166099073465    2.95178148169001    9.82030603471898
C         3.05950339930014    1.78286407078484    9.57801047465248
H         2.77223395012767    1.20519139559394   10.44481027950504
C         2.83050214781623    1.30302612595972    8.30581148326310
H         2.35498210673350    0.34993244574449    8.13929256436821
C         3.23657491373370    2.07124952326232    7.21155422304052
C         3.84656305888492    3.29530754866732    7.45682930126572
H         4.14805669209939    3.92031966050276    6.63285032599552
C         4.03932702258184    3.70485031738678    8.77149994089414
C         4.65711108940685    4.98865859450802    9.11019899404935
C         5.53013711441272    5.64591584041949    8.25340125146082
H         5.79540562274471    5.23548799688500    7.29212486136463
C         6.10012497772193    6.85132493716242    8.64783307206330
C         5.77123632313308    7.35606395457001    9.90818038589814
H         6.19072741648721    8.28742680962360   10.25009079931070
C         4.89392755023537    6.64158596086076   10.69709222327759
H         4.60525672236134    7.01346000818258   11.66978472829683
N         4.34089542869628    5.48726857647814   10.32380598229197
C         3.00298715782236    1.55595393546912    5.83853694291649
O         2.46875495773221    0.49952773626523    5.60435396881409
O         3.46305498331186    2.39197008440953    4.90194233396641
C         3.28114919848822    1.99956350970036    3.54088358162827
H         4.04821875922086    2.54363207814892    2.98617459446715
H         3.45253898969569    0.92130954362546    3.45796211734904
C         1.88722844097361    2.34993665664322    3.04107833132991
H         1.14103187273679    1.78884261312978    3.59827969163703
H         1.80442182400090    2.09577457171531    1.98841100591441
H         1.69791515777352    3.41338120618496    3.16664509770138
C         7.02684717001366    7.54091180619029    7.71794709032427
O         7.29985436199694    7.13130833263038    6.61444731921345
O         7.52350669534232    8.66633310749558    8.23676651557359
C         8.42710504925465    9.39849753852405    7.40752220700940
H         7.91886502856449    9.65087748520440    6.46994176944389
H         9.28207296811114    8.75672272172426    7.16637996494286
C         8.86212920718269   10.64342399671298    8.15624950786559
H         7.99952554131802   11.26204139497893    8.38902829551604
H         9.55313632447997   11.21404347954167    7.54296162092558
H         9.35469183662065   10.36912520200285    9.08525402100517

