65
CSD_code = VEQWOF | q = 0 | S = 0 | Stoichiometry = C26H29BrN2O6Pt | MND = 6
Pt        7.75722974637010    7.99327805421531    0.35037281081138
Br        5.31528502857497    8.38218785647579   -0.39266267213195
O         6.27165998887639    1.21162034106983    1.62510476984652
O         5.94659460404528    1.92372857433546    3.73631639613904
O         6.95938239238385    4.23271904545190   -5.74126409192123
O         6.11501826036994    2.86297243633697   -4.17872324342006
O         9.94373777590308    1.20850477190537    0.42248910159351
H         9.87705011509498    0.26527489442978    0.63749316087598
O         9.56106259577217    1.39757715012867    2.61079006817117
N         7.74235976365806    6.60516180553430   -1.39381467620601
N         6.99112422758566    6.07935684263985    1.17064990315744
C        10.14075363493614    5.29547133728611   -0.08332869796157
H        10.33350256646447    5.71380100662878   -1.06208036470002
C         7.23621853504313    5.39503102951718   -1.11322252819090
C         7.00030932987703    5.06237871013141    0.29946164777093
C         6.66731929830088    5.85149108594671    2.43526713507316
H         6.63174530124652    6.71502171707695    3.08447838662193
C         6.37923236906944    4.59128573521698    2.92185579218142
H         6.11550035810393    4.42802014603701    3.95417414684925
C         6.46114683727856    3.51027193717883    2.04823886613831
C         6.76515261943074    3.75273374850768    0.71724693697782
H         6.83499911578663    2.92561817215383    0.03157419295001
C         6.20704325174732    2.13706951933518    2.58116840690097
C         6.06551332653571   -0.15266037845605    2.00808329170463
H         5.29872589905072   -0.54587489522323    1.33421746565332
H         5.69868228761808   -0.17324431896437    3.03855394299378
C         7.36194386835938   -0.93745305073490    1.88368202311523
H         7.68830028440783   -0.96064982698857    0.84571083154197
H         7.20344026290615   -1.95586664402495    2.22629246718882
H         8.13050148768423   -0.47121963286047    2.49688553913054
C         6.88012762161823    4.50919759508792   -2.12904853384440
H         6.43167969251889    3.55633191216950   -1.90648999427842
C         7.07863082235619    4.87440480719635   -3.45234923750234
C         7.62142597879725    6.12758701437825   -3.72471088595861
H         7.78294560697846    6.43580258786073   -4.74491687757613
C         7.92596575200409    6.95290129973220   -2.65987056805407
H         8.33073146466074    7.94048381722223   -2.83418029448872
C         6.72102172979816    3.97526428209349   -4.58841927414360
C         5.71291673678375    1.94634585474249   -5.20087414163637
H         6.60096592807040    1.63312623500711   -5.76111417125926
H         5.04115370060021    2.46612727847795   -5.89267271639255
C         5.02581529465660    0.76692459830286   -4.54043735275750
H         5.70908377024775    0.26569900362925   -3.85985288831188
H         4.70294977409247    0.06240765187741   -5.30099571287130
H         4.15876906317588    1.10486771423055   -3.97909415285196
C         8.38991149493930    9.74487423750776   -0.53622782366219
H         7.53636964593504   10.41831797541136   -0.63539838704304
H         8.76966394553850    9.52026002663554   -1.53678108815487
H         9.17702380943000   10.26390042975236    0.01138578351331
C         7.54184479651749    9.08191049441823    2.08715384066618
H         7.92581119176951   10.10029223327191    2.03964874979152
H         8.03990484426105    8.56963444091225    2.91390202335169
H         6.46976286279100    9.13576214798608    2.29251621935714
C         9.79982112038536    7.60705620173159    0.78873647515909
H        10.37352013938043    7.92934629137854   -0.08227217963486
H        10.11232036581371    8.17062880807408    1.66722385174807
C         9.90908850820145    6.16354415805521    0.99466044310868
C        10.12179805938296    3.92948968353364    0.07962580735341
H        10.28403925286527    3.27473865739575   -0.76282810028176
C         9.88306770757688    3.37926042423889    1.33991605917381
C         9.78417308860315    1.93139036970834    1.54830783368643
C         9.72521480063471    4.23059388672636    2.43729630145026
H         9.57744445249586    3.79063055303459    3.41229750407122
C         9.74573728788213    5.59405103866411    2.26730161300419
H         9.61786455704838    6.24503911971579    3.12045086711434

