27
CSD_code = VEQZEX | q = 1 | S = 0 | Stoichiometry = C4H16Cl2CoN4(1+) | MND = 6
Co        3.45827811193270    3.35308616869166   13.59998070889479
Cl        5.15956640464883    3.09438400775308   12.20547172468600
N         3.55621344997144    1.45851249307115   14.09355812642566
H         2.70719742944426    1.25206434565588   14.62830405219656
H         3.60236437057174    0.79926430378631   13.31583211543617
N         4.72375394055354    3.63351438800191   15.07101087060034
H         5.64656478827601    3.76300084382300   14.64555782765206
H         4.53722379623915    4.44358300031435   15.66335853307186
C         4.72268483780409    1.24230289558755   14.96690437038757
H         5.62123201784580    1.23340031577208   14.34536064054315
H         4.65270746091178    0.29572322215632   15.50958213001607
C         4.76371738645636    2.42837603545640   15.91761918756854
H         3.87565439908764    2.42491269316737   16.55416051940524
H         5.65669474621815    2.40563148450535   16.54804872841338
Cl        1.75886814671798    3.61490125284685   14.99606779314631
N         3.36164096836662    5.24770564488619   13.10605174075235
H         4.21075182458889    5.45392673897408   12.57132627551711
H         3.31556232461744    5.90708030013753   13.88370901438598
N         2.19381765674544    3.07290422768442   12.12819111372206
H         1.27093006312580    2.94339229074847   12.55340503745395
H         2.38051975032736    2.26288769785372   11.53588439906727
C         2.19525850085169    5.46416999047963   12.23262174493784
H         1.29668546846372    5.47320306794525   12.85410155496051
H         2.26541462488781    6.41075267515247   11.68999242023124
C         2.15414416650016    4.27818448257086   11.28179208834142
H         3.04231284164076    4.28164876244422   10.64536745559020
H         1.26124052320482    4.30108667053387   10.65123982659639

