31
CSD_code = VEQZUP | q = 1 | S = 0 | Stoichiometry = C14H12AuBr2N2(1+) | MND = 4
C         6.08898994994469    0.76579499196823    1.48008806326217
H         5.69314594998695   -0.22393189099082    1.30100044567666
C         7.35637682830171    1.12989066973932    1.02603331491368
H         7.94321020389610    0.41226980708785    0.47625841334984
C         7.83229299184543    2.39220088430442    1.28740473289858
H         8.80650427901938    2.67822829990788    0.92543222552965
C         7.04061153848148    3.31289747044034    2.00476308929746
C         7.45339695632925    4.65259864846974    2.31027649229757
C         8.85645006294938    5.05506672582468    1.98111906437663
H         9.18673541027743    5.87370347226586    2.61142699934607
H         8.93313158533458    5.37068171952101    0.94033256768353
H         9.54278297191443    4.22778926767292    2.13759988036870
C         6.56902642217889    5.53555423039745    2.88660351540254
C         6.91521778424869    6.97931802437959    3.07237531835426
H         6.04269494600983    7.60829326550514    2.92029184666143
H         7.67071936726758    7.29584814705595    2.36151151552325
H         7.29428802023700    7.15843942887411    4.07879291952831
C         5.28271276232127    5.08233253484807    3.33213886047761
C         4.37457294836946    5.88501613656653    4.05326415671892
H         4.62938380699065    6.90103409176424    4.30759965927131
C         3.16606541631104    5.36891543797932    4.45499858475937
H         2.45873681338258    5.96401493351004    5.00920619690979
C         2.84465901510421    4.04846633668203    4.14181569676586
H         1.89746317035045    3.61820364999197    4.43510533165993
C         4.88512272922303    3.74888570705463    3.08654370984971
C         5.75776294075336    2.86791615979015    2.39561206926169
N         5.32510207288375    1.61397367900216    2.13536259503288
N         3.68383361465266    3.27505261607706    3.48611946782214
Au        3.40503859129845    1.27441527168224    2.91396482373956
Br        3.23066345643685   -0.99277919250806    2.19608745980494
Br        1.22960739369807    1.03400947513579    3.85957098345929

