66
CSD_code = VERBIF | q = 0 | S = 0 | Stoichiometry = C29H30N6Pd | MND = 4
Pd       10.36205772069829    3.50842896925569    4.20331441338532
N        10.34677151231757    3.27829955657608    6.17310283848386
N        10.39709284718508    3.81674997265701    2.25042600636475
N        11.04367628871736    3.43980100782913    1.34969361195933
N        11.58372908901672    3.14924834121737    0.39263776556639
N         8.38720136860216    4.48123155639748    4.15215956868287
N         1.62707435355858    6.14401528071376    3.10452663398737
C         9.53610259925940    4.10741743116675    6.95729560348054
C         8.38146684173107    3.61115704955161    7.57437954786169
C         7.61177553579769    4.48163881013063    8.33287389212531
H         6.72695318870271    4.11728325683689    8.83126136370698
C         7.96751402492999    5.80967919965954    8.46495559678614
H         7.36469730402924    6.47097617712921    9.06934683397385
C         9.08807366187590    6.29967765145391    7.81698901948067
H         9.33946036235178    7.34269083649712    7.92213428252163
C         9.88581250355337    5.46845000009841    7.04676730363355
C         7.97878264598258    2.16400017928950    7.39886197594102
H         8.56089307872627    1.74107566003780    6.56887366589011
C        11.11540788860132    5.97300142351178    6.31777576659783
H        11.17871930340939    5.44495917783981    5.33072634992188
C         6.49649548399288    2.03006621992142    7.04216672412414
H         6.28015710228279    1.00747692571153    6.74051795477774
H         6.23961234032988    2.69666463516247    6.22105541305338
H         5.86406026150978    2.27008157740992    7.89303339462265
C         8.29166707558005    1.36465655323154    8.66628324164402
H         7.74343791732721    1.76976064028149    9.51411876272108
H         9.35353275920651    1.40389247518078    8.89787879607353
H         8.00719707540046    0.32309687761938    8.53469112786939
C        11.08766133285775    7.47667343178104    6.04187868114892
H        11.24985662357042    8.04401217853112    6.95619418323261
H        10.14136590359507    7.78751717284019    5.60447086486184
H        11.88334835823250    7.73169970590999    5.34562331750805
C        12.38034424138506    5.63557619953325    7.11692463041472
H        12.32373920669716    6.07847518989915    8.11017409402429
H        13.25667327118298    6.03143370492426    6.60899084274311
H        12.50909535145492    4.56118213465341    7.22283246899022
C        11.20710431208094    2.44690148609264    6.64771672444192
H        11.30784526623677    2.28048594555472    7.72133078749147
C        12.07323559083021    1.80530631692358    5.70049711740272
C        11.92608363387017    2.25037483497292    4.35908041174062
C        12.78733032136983    1.70424779745606    3.41423707671495
H        12.73753968787466    2.00234303873263    2.37404530542413
C        13.74344888448624    0.76338947796245    3.77633513069096
H        14.39909015964409    0.35754974786192    3.01926578791129
C        13.86870901415304    0.33727460690579    5.09127563090709
H        14.61617577235347   -0.39680479711787    5.35457356398588
C        13.03656539893926    0.85943590673733    6.05862400541611
H        13.12057522999566    0.54397770573179    7.08985335408820
C         7.97857868402049    5.74104055345429    4.23125067867509
H         8.73718402762327    6.47878483724787    4.45714838751452
C         6.66237802687328    6.11722560476084    4.03531689073474
H         6.37561899715610    7.15340636132199    4.12518417335726
C         5.71157387056671    5.14257852742744    3.73929759232957
C         6.15269191780586    3.82202580659648    3.64844578613346
H         5.46372038515984    3.03061399197881    3.39594644934563
C         7.48968849908057    3.54160032634611    3.85681694942572
H         7.86589205541592    2.51846767788408    3.78085475339908
C         4.30149720629048    5.48961212184895    3.52266654750851
C         3.94252094453918    6.62424544633016    2.79715587549679
H         4.69659005565975    7.26255663224267    2.36318252251739
C         2.59661419535751    6.89800986630464    2.61674708897095
H         2.27635664037692    7.76466162560476    2.05372158617094
C         1.96479203558495    5.06993003670979    3.79630203822771
H         1.14071185901288    4.48222025524093    4.17874797131569
C         3.27685545634233    4.69363832399462    4.03204386458367
H         3.49962544775639    3.81405277638407    4.61659940986843

