74
CSD_code = VERBUR | q = 0 | S = 0 | Stoichiometry = C32H34N6OPd | MND = 4
C         2.62341365671685    1.09614412809806    2.70384401175014
H         2.46109439524477    1.87797573727171    3.44919964178151
C         2.87627683106866   -0.20423581979528    3.08395800748216
H         2.91761702622412   -0.46123653488598    4.13185537128856
C         3.05528516647594   -1.19291666908330    2.10827035453503
C         2.96895717626100   -0.77883317173442    0.77612967463083
H         3.09445285182585   -1.47914377067207   -0.03301392744893
C         2.71461612341562    0.54648537774902    0.48848969491650
H         2.62576610252691    0.88230428937670   -0.53777417845322
C         3.31790711829778   -2.55710166111409    2.51698871585128
H         3.51345585698398   -2.68060698687574    3.57383754190634
C         3.30065547771600   -3.63046934415058    1.71390408878573
H         3.04805451203953   -3.51417929448684    0.66853450395402
C         3.56116073811959   -4.99823382112724    2.12288027186220
C         4.09777913244021   -5.34914512489983    3.36540673315444
H         4.35622478160358   -4.59760134078017    4.09417421226288
C         4.31279616386888   -6.68598797118198    3.64876262983071
H         4.72903906741992   -6.99080204356954    4.60031013195500
C         3.53352261027694   -7.34689558375101    1.62887855059192
H         3.32490766306210   -8.17779648700475    0.96759732335106
C         3.28118165036846   -6.04421886353865    1.23750836644883
H         2.86645664901536   -5.83689364831820    0.26235315445524
C         4.46310284279931    3.93396507666918    1.20757350821434
C         5.39125437007821    3.68515301216584    2.22573021633597
C         6.61834336366055    3.13578344596991    1.88146442294799
H         7.35482833874159    2.95092566385123    2.64805901778117
C         6.91263423236604    2.82645194297527    0.56814309421947
H         7.87668065033258    2.41058732745763    0.31545856750675
C         5.97175943864971    3.03582960891229   -0.42500335227875
H         6.21608271524928    2.77348193905917   -1.44167076719819
C         4.73314201603252    3.58148198798727   -0.12798164063707
C         5.05318196583407    3.98370066860953    3.66929777202404
H         3.97508739873726    4.17969659818367    3.73997747558731
C         3.68268375411998    3.82731023552898   -1.19186114852181
H         2.67522280494390    3.62646572515704   -0.74491839669378
C         5.37262564453956    2.79176620050686    4.57545725695866
H         4.96032589552796    1.87386309135225    4.16126674896698
H         4.94464629901276    2.95167991513055    5.56282161763461
H         6.44577228702972    2.66388503765059    4.69160198656461
C         5.80115422417011    5.22912001689872    4.15097834818691
H         6.87593340588206    5.07806829114280    4.07773632104416
H         5.55072621363277    5.44075793698509    5.18817336399646
H         5.53777675776565    6.09659142981241    3.55015372196596
C         3.71320728270829    5.29574255716923   -1.63302521771515
H         3.47776940739665    5.96117098893316   -0.80581045072502
H         2.98131451724039    5.46271458661516   -2.41987945567671
H         4.70047861304593    5.55106123804042   -2.01510163373589
C         3.01960478435043    5.74070010002614    1.73955441672350
H         3.85695435252198    6.43771622324662    1.80507938530806
C         1.66490734746934    6.18128207230990    1.86479484288269
C         0.68385418333452    5.18018072690390    1.61793741778507
C        -0.64421917294999    5.55078595098535    1.67425032179359
H        -1.43213108870096    4.83290289541335    1.49114386436833
C        -1.01948110942095    6.87056818452820    1.96487605722838
C        -0.04373512355217    7.83996107329190    2.20695126415472
H        -0.31595634625880    8.85896424090945    2.43368361283743
C         1.28949671640162    7.49312395496536    2.15336864686222
H         2.04770532327861    8.24214337716307    2.33768788109271
C        -2.81910805440718    8.40093980459949    2.27817330004592
H        -2.51066077696876    8.72472242704072    3.27762935681180
H        -3.90566340464138    8.34055928777933    2.24025931771930
H        -2.47237708290948    9.12851520464374    1.53703582328482
C         3.84157430757748    2.92730136752503   -2.41755418603963
H         4.68533244676666    3.24462813468548   -3.02708499785025
H         2.94604811750477    2.98675305647429   -3.03220151940120
H         3.99341411602693    1.88948427699097   -2.12908082200885
N        -0.18712178682485    2.43367823030077    1.14897326939715
N         2.55286633671044    1.47645783838186    1.42586913430818
N         4.03947360119648   -7.66938031602316    2.80741181590125
N         3.20944508050176    4.48970274484337    1.49256566909371
N        -0.26328695845175    1.26498382347708    1.10662764764290
N        -0.45514576013955    0.14279808074585    1.05623066415535
O        -2.35526993456858    7.10510381148205    1.98794101387135
Pd        1.54062469579351    3.39695750917424    1.34314055034048

