73
CSD_code = VERBID | q = 0 | S = 0 | Stoichiometry = C38H30CrO4 | MND = 4
Cr       19.89329390032801    1.49065278198691   10.61270432345611
O        20.39118613621968    2.39409331712305    9.43040742283099
O        18.67347670363412    0.50476259651162   10.08982418314430
C        17.52763082805653   -0.19092672744405    9.75820977798290
C        16.38292913896755    0.79398912558543    9.51832730040358
C        15.06219609969993    0.39273106177881    9.68484074268594
C        14.03122356252485    1.28626444982441    9.45522761308868
C        14.30912527847296    2.58509268182956    9.06401834244390
C        15.62354309263235    2.98655062248632    8.89946615240405
C        16.65976596149215    2.09498500063847    9.12067269857521
C        17.17733978790025   -1.08842278903508   10.94887389790095
C        16.78243194209973   -2.40997462183592   10.79468564554279
C        16.47969579861734   -3.17548617876566   11.90870827762591
C        16.57291121353630   -2.62983397344316   13.17725941695577
C        16.96715335187735   -1.31067151663936   13.33286139928824
C        17.26453325429479   -0.53969253567010   12.22357540230633
C        17.83435991498301   -1.02091713436745    8.50996275078415
C        19.06540257591972   -1.66451046158218    8.44637897203166
C        19.40220822960669   -2.42728312423633    7.34366574759026
C        18.50831261947488   -2.55912233115093    6.29433504395183
C        17.28080946565187   -1.92250962174050    6.35411624373965
C        16.94247432081792   -1.15359154187652    7.45518581604505
H        14.83997681150853   -0.61777966292121    9.99633302856502
H        13.00823799834402    0.96598178520079    9.58723899468211
H        13.50278181331108    3.28204391152140    8.89059801071726
H        15.84810071531545    3.99794168789754    8.59650790126287
H        17.68725116092033    2.41754389455167    8.98906435471554
H        16.71061090735066   -2.84287754609715    9.80737564790450
H        16.17217863539677   -4.20307557700267   11.78138032686130
H        16.33749910962829   -3.23136110329558   14.04317331023572
H        17.04247157018800   -0.87884064146580   14.31953529827848
H        17.57024537892936    0.49276802126248   12.34158300854577
H        19.76739552088177   -1.56467222092692    9.26466492531512
H        20.36411698421202   -2.91701529905936    7.30891938820380
H        18.76824754770314   -3.15507594858849    5.43212796683441
H        16.58026085894064   -2.01976792891062    5.53797361559049
H        15.98469658659913   -0.65666702760099    7.48915089837271
O        19.39540276714899    2.39409782745288   11.79499854823857
O        21.11311090923236    0.50476464718905   11.13558787813724
C        22.25895633998955   -0.19092432159767   11.46720322926820
C        23.40366096901524    0.79399141603790   11.70707789941852
C        22.60924226343239   -1.08842375567327   10.27654013710070
C        21.95222659379474   -1.02091059378369   12.71545314650131
C        24.72439423799493    0.39272940645511   11.54056894880019
C        23.12682822183054    2.09498737462197   12.10473543705213
C        23.00415504723953   -2.40997380303411   10.43073058302199
C        22.52205368852687   -0.53969365838687    9.00183827920790
C        20.72118487966162   -1.66450548366243   12.77903639687193
C        22.84411343469745   -1.15358765624090   13.77022898131121
C        25.75536984372840    1.28625755234797   11.77019068787565
H        24.94661210407259   -0.61778333182475   11.22908160299975
C        24.16305429856351    2.98654734800564   12.32595116345210
H        22.09934473293729    2.41754610666005   12.23635185791454
C        23.30690277092473   -3.17548334605199    9.31670976600157
H        23.07597680568041   -2.84287500651131   11.41804128712641
C        22.81944506809839   -1.31067063663445    7.89255405554956
H        22.21634883155981    0.49276898153012    8.88382949774677
C        20.38438192148208   -2.42728384034831   13.88174658712132
H        20.01919286583560   -1.56466991937389   11.96074933771999
C        22.50578128184081   -1.92251218460426   14.87129517708555
H        23.80189226927464   -0.65666518784314   13.73626348342267
C        25.47747152452929    2.58508510259657   12.16140363240991
H        26.77835384135027    0.96597637040925   11.63816924752705
H        23.93849937653772    3.99794086171757   12.62890412298279
C        23.21369311257965   -2.62983103791957    8.04815818301895
H        23.61441254723847   -4.20307481737478    9.44403903154612
H        22.74412532663588   -0.87884168853085    6.90587940017953
C        21.27827932518446   -2.55912745714078   14.93107501691624
H        19.42247228383588   -2.91701425633029   13.91649339816297
H        23.20632808943764   -2.01976722032329   15.68743980364592
H        26.28381537447380    3.28203893073344   12.33481152047569
H        23.44909964989536   -3.23136084138647    7.18224470851360
H        21.01834262574037   -3.15507730566746   15.79328411891825

