85
CSD_code = VERGIK | q = 0 | S = 0 | Stoichiometry = C37H41Cl3N2OTi | MND = 6
Ti        1.10136377731246    2.23684008220998   16.72150502609453
Cl        3.37386322625600    2.31942273473548   17.09914458668941
Cl       -1.10474743333700    2.66589952025736   16.17039158090400
Cl        0.65526925599143    0.44911636887932   17.92079115886549
N         1.36069309234936    4.02984501809868   15.76598907326489
N         0.94822132751815    3.50939542752248   18.45866672475586
O         1.36761710301456    1.49339664022222   15.21146201914529
C        -0.44112506296769    3.63731358457901   18.97400143774969
H        -1.03475089283050    4.33154467183332   18.38048358967391
H        -0.91970654891437    2.64804080323669   18.91394875899370
C        -0.28087304828761    4.02089267260088   20.41634915320475
C        -1.15301539788541    4.62938029455141   21.29137693357981
H        -2.14427940643837    4.91987192382118   20.97800243626288
C        -0.72044140738748    4.86437155876113   22.59043167278198
H        -1.38302119048657    5.34762725589886   23.29255135324236
C         0.54858651844676    4.48751744399477   22.99489431657729
H         0.86439137086872    4.68096847361922   24.00899477842896
C         1.42219944616235    3.86378541631544   22.11285409597625
H         2.40981856120644    3.56646576511028   22.43114560111102
C         0.99439842178170    3.64037960299010   20.82272096821246
C         1.68799566932667    3.00586684230553   19.65367962389355
H         2.75430798558785    3.22727130223935   19.58870981352150
H         1.56779320871910    1.91399716199056   19.70575745504483
C         1.53685318565815    4.81514065727909   18.04699122439444
H         2.61903563429576    4.63145372265889   17.99196895177059
C         1.31867576801705    5.96461809019908   19.00920643600893
C         0.15115628555846    6.71880007411832   19.03854583963129
H        -0.65994261443730    6.50778841712346   18.35862767784467
C         0.00066713223532    7.75246507586716   19.94524118615793
H        -0.91629858925405    8.32260676134933   19.95624863032285
C         1.01561621970685    8.05640051601285   20.83419535138356
H         0.89366911730313    8.86028094438813   21.54415830219829
C         2.19138079586482    7.32818286215993   20.79972306246306
H         2.99542480954748    7.56390689989474   21.48043046814102
C         2.34173311964323    6.29790017742842   19.89067969425577
H         3.26828681063963    5.74284547879226   19.86640268898888
C         1.11514084267208    5.18798879529693   16.60650812585195
H         0.03645750425286    5.39831054072737   16.55837932263576
C         1.90504529395942    6.41157613804859   16.19317550056630
C         3.27756516039740    6.29742143320094   15.99233405935217
H         3.75427961577371    5.33126766657179   16.09290607266769
C         4.02552028320910    7.40900878119178   15.65122427808492
H         5.08930924548923    7.31129548845571   15.49571072982400
C         3.41312990647325    8.64400130007884   15.51256636478596
H         3.99894228973866    9.51220695880078   15.25062094423273
C         2.04816558251135    8.76112860284791   15.70645705086252
H         1.56520766350597    9.72026152665045   15.59495374901178
C         1.29547296115705    7.64843083919663   16.04202295502465
H         0.22964027014238    7.74594972494801   16.18652536293946
C         1.54015941132952    4.17736642847523   14.50504717348461
H         1.54080160933527    5.18718858446516   14.07873411702084
C         1.74729224727421    3.11397282156934   13.56807036754414
C         2.02564800207587    3.41879054217863   12.22876453135292
H         2.08798723847775    4.46105541058783   11.95818668224932
C         2.22058345241864    2.42811272153502   11.28981020374433
C         2.15292303722903    1.09726898217215   11.72276112086661
H         2.32270411229215    0.31943232850725   11.00053548141761
C         1.87700778863323    0.72921823183461   13.02491609181207
C         1.65864047935516    1.75526570138063   13.97491874882392
C         2.56289612227491    2.76717283121763    9.84568309114191
C         2.14836714927060    1.64748333820264    8.88314306573873
H         2.76494900072883    0.76141717465204    9.00714382473381
H         2.26859573067237    1.98532790177813    7.85622559119871
H         1.10555753272423    1.37836336835034    9.03413212564699
C         1.85666151116606    4.05414885944349    9.39948752632701
H         0.78877627184340    3.98962330647824    9.59468944968801
H         2.00261843540823    4.20317048662890    8.33201866083862
H         2.25356573191207    4.92825779833974    9.90779358892556
C         4.08322263337023    2.96560565494334    9.76158251204921
H         4.39958690853064    3.77410953020807   10.41653538958790
H         4.37556997889716    3.20849823013246    8.74245356125393
H         4.60234220891189    2.05933159353295   10.06513523902668
C         1.79440020199694   -0.72126439982916   13.48312510992528
C         2.83563933658699   -0.96230690749081   14.58830183901092
H         2.81787414182312   -2.00731172664396   14.89031867276782
H         2.63305268981008   -0.35356013336347   15.47112715184755
H         3.83410443688763   -0.72189736058954   14.22637136806383
C         0.38153494843549   -0.99893134651587   14.02159343809625
H        -0.36194007866678   -0.80448568710466   13.25022871769997
H         0.15236003891920   -0.37452113729319   14.88627495416256
H         0.30129077998000   -2.03990692113513   14.32730589331497
C         2.07269024904086   -1.70872029901831   12.34514992306404
H         1.34302642057982   -1.60449712672897   11.54520778053294
H         2.00359924360714   -2.72393971086416   12.72933780838489
H         3.07351812663554   -1.57198710822368   11.94143301162695

