41
CSD_code = VERGEG | q = 0 | S = 0 | Stoichiometry = C18H15Br3N2OPtS | MND = 6
C         3.16452870629661    7.59723941037802    3.08605973138677
H         3.47932168908476    7.87625797124632    4.07984854653638
C        -2.36750250305732   -0.76206727410713    1.25138549103796
H        -1.48116601415147   -1.11905306800513    1.78162431996984
H        -2.95646757199852   -1.61248709549183    0.91292979026676
H        -2.97107961357005   -0.14327203010429    1.92020373202106
C         3.42550599049758    8.43197874621031    2.01597035101315
H         3.93317904079285    9.36942670174613    2.18038914387762
C         1.28718834374274    6.39639231539770    5.40404319823081
H         1.92180252064003    7.17785224142658    5.81069004677514
H         0.92807564056697    5.75407631686019    6.20412863095047
H         0.44749167896596    6.81559374722193    4.85685330596182
Pt        0.76186146865807    3.69854375053324    2.93463979341940
Br        2.79903406515332    2.24873327046305    2.61074589063734
Br       -1.21607935840174    5.26544840230327    3.04986385230829
Br       -0.02963256822726    2.37476898012707    4.85124686950967
S         2.27039866109562    5.32512830337175    4.31185103343382
C        -0.81351446609102    1.57752803579685    1.37181282486625
H        -1.05685207032648    1.10239486224118    2.31025438658623
N         1.40971654551034    4.84224128517173    1.40052299288551
C         0.29860170525036    3.38831484038994    0.17501652146501
N         1.04917658188939    4.49568257765555    0.23712981003953
O        -2.01420548693448   -0.05546892623982    0.07782948355113
C        -0.05553544322771    2.72702015292410    1.36918282404376
C        -1.26721702417061    1.04488079141549    0.16839010789244
C        -0.15911768368501    2.86281098380841   -1.07628329626211
C         2.11356574510265    6.00761332114589    1.60391922276016
C        -1.38976313931651    1.16326280773055   -2.29982564679609
H        -1.98718578870386    0.26557278741392   -2.28915583441358
C        -1.06916267214824    1.78296317485057   -3.48039148416845
H        -1.41607887448285    1.37420536623711   -4.41716447519820
C         2.50932684602928    6.39075600651188    2.89551000237766
C         0.15778819561893    3.47644866663534   -2.29515615618595
H         0.75953703075837    4.37104122309038   -2.27878876220658
C         3.04865212798271    8.05394472674388    0.73356068093596
H         3.26038750496340    8.69932459149447   -0.10463107621235
C        -0.94355393599088    1.68713975363859   -1.07308470983042
C        -0.29195681925715    2.94449094743045   -3.47818344237966
H        -0.04546288777548    3.42352568460581   -4.41377234213985
C         2.40211759572622    6.85714603426277    0.52633077868090
H         2.09247623719006    6.54509961546770   -0.45839613762846

