76
CSD_code = VERGUW | q = 0 | S = 0 | Stoichiometry = C36H28IrN4O4PS2 | MND = 6
Ir        1.61680761922302    7.94892615850974    8.42780276189899
S         1.04059643108469    5.40970769646217    8.89683317593256
S         1.43134819562806    7.07396814768628    5.97956082336973
P         0.55216173504166    5.54584710101106    6.95399313040775
O         0.88730239917166    4.15966431204959    6.18917856453578
O        -5.33052220140104    6.04334114483761    6.39380733870312
O        -3.02798528468383    8.94188259303896    6.38616054946409
O         5.51294523903139    4.63086470766897    8.06712390721491
C         2.23503404621925    3.73337988707972    6.06564679361526
H         2.84247063907328    4.50162444048319    5.57828576384815
H         2.22011960905994    2.83495883840891    5.45141531757562
H         2.66511731509074    3.50319521402224    7.04383765566110
C        -5.89546293960912    6.68736241150030    5.27230893326920
H        -5.41400788949618    7.65300071897239    5.09234255691997
H        -6.94508240098741    6.83955087676132    5.51894192439918
H        -5.82397946016378    6.06664332046739    4.37382238701179
C         3.73470890973714    9.81197497741144    7.83223746580607
C         4.43144019432655   11.01800605338838    7.76584785518876
H         5.50668988450941   11.02801381623706    7.68105337504652
C         3.75065453172390   12.21534496875260    7.86938113247022
H         4.29318588833277   13.14742088224688    7.81637929670844
C         2.37763051799343   12.22061296846061    8.05166687906479
H         1.84592592062155   13.15843020019934    8.11765204817289
C         1.68856334798142   11.02639369526376    8.19577868510810
H         0.62616795209568   11.05709353646217    8.39326327676005
C         2.34968010866386    9.80843176923293    8.11351844971577
C         1.46286400867884    8.36253251124615   10.39650188194172
C         2.46937035688935    8.48851552661043   11.34125864827048
H         3.50408516018270    8.38904815035701   11.04595172968620
C         2.16740377294295    8.76436597593339   12.66587671345164
H         2.96299621166608    8.85965503193405   13.39008489519981
C         0.85146850792947    8.95361915753365   13.05560417792294
H         0.62217817269175    9.21376879000123   14.07826949233669
C        -0.17108904955198    8.82264626383378   12.13698260191424
H        -1.18440048895590    9.02746257626646   12.44408428705014
C         0.11840369006692    8.48315970171120   10.81485657783066
C        -1.24896504062092    5.55808695706609    6.72767107926465
C        -2.09791535379144    5.28150293017451    7.79114935724995
H        -1.68739968360489    4.96708098668219    8.74084617582942
C        -3.45778592545062    5.42415506954135    7.63669914574961
H        -4.13434865165646    5.22446055200996    8.45284811896480
C        -3.98920835561838    5.86821314812550    6.42230517042463
C        -3.13446349499405    6.11460263091761    5.34935547673592
H        -3.51578883062037    6.44879404131674    4.39878392385991
C        -1.77233474762477    5.96500140965778    5.50980439886492
H        -1.10373289007955    6.18216741211309    4.68839200798708
N        -0.31286635020263    8.38908259368044    8.54494249808061
N        -1.08901309767564    8.52963010101442    7.45265459809859
H        -0.58268352622388    8.57168178296966    6.56836190151231
C        -2.45362734795278    8.69157584302556    7.42770659735266
C        -3.08761703294655    8.45024120712213    8.72360589024142
C        -2.29402983920389    8.21793371775924    9.86465551071562
C        -0.86260311586657    8.36042264648226    9.74334038583328
C        -4.47694377442521    8.35807015506644    8.79245651349840
H        -5.04523205562787    8.56355352635942    7.89883417018250
C        -5.08786089254812    7.98086257855158    9.96671116911720
H        -6.16294432125269    7.90647763596307   10.02231197879438
C        -4.30626637558124    7.64746518613575   11.06984471578332
H        -4.78018774111891    7.28700601417827   11.97093286188183
C        -2.93429033042980    7.76141446190958   11.02476647239567
H        -2.34465719074797    7.44798720786362   11.86992877742211
N         3.55893050897244    7.54200402021763    8.24107731990545
N         4.00578063113631    6.27918971831250    8.31961597805441
H         3.34432127828004    5.62103514146423    8.74432443240500
C         5.22044854353860    5.79742871242254    7.89609117767943
C         6.02912369381196    6.79795373987201    7.19715907781585
C         5.56103409356404    8.12156604199704    7.06884931125096
C         4.32624055237051    8.48189462660709    7.72454219577507
C         6.27224388603598    8.98233292874419    6.22005031507748
H         5.87576353424756    9.95791772769922    5.99663462411084
C         7.44154926724726    8.57149980802385    5.61969060871836
H         7.97200855143535    9.25145816541698    4.96951161614780
C         7.94055757582569    7.28825187030688    5.82776657581327
H         8.86667325484470    6.98527239994248    5.36382402711712
C         7.21999121927376    6.39867374988060    6.59196474165011
H         7.53900872435726    5.37673743147988    6.73017804930580

