39
CSD_code = VERGAC | q = 0 | S = 0 | Stoichiometry = C18H15IN2OPtS | MND = 4
Pt       10.79520754447641    7.21438228571856    1.15141889791219
I         9.81519603015501    9.56244313775750    1.31276193881200
C         5.23559738243187    7.08608598345071    2.58141401418500
H         4.17983982577021    7.04716232055168    2.84442195648493
H         5.35267069922908    7.58521824942532    1.61576820274290
H         5.78184341933816    7.64336299144183    3.34730994546666
C         9.57250557463079    4.71297282827818    1.60444750630883
S        13.07378966750219    7.97605747850843    0.50279058622814
N        11.58131064623571    5.43079746806426    1.08492809179208
N        10.84540265436971    4.40081267937124    1.32435175226683
C        13.75527517721378    6.31955452260573    0.57649010030864
C         9.21126934012188    6.08692291699492    1.63839468809232
O         5.66043504466531    5.74155090576263    2.52185278352213
C         6.32524811672203    3.08013461850897    2.44328564688150
H         5.31636623384087    3.38345539474186    2.67467954657356
C         8.93447019157778    2.33050645529709    1.84075971240841
H         9.94995833479216    2.05455464852939    1.60391967503501
C        12.92451082672095    5.22421857622287    0.84337719256393
C        15.10755790375732    6.14632829105833    0.34615234812064
H        15.72139237221455    7.00823972372640    0.12962043674119
C         8.60700606561130    3.69372341516009    1.87516217153230
C        14.84764758441119    3.78259714121118    0.65615965685674
H        15.27589256886462    2.79220817478122    0.68648537211068
C         7.28173051667454    4.07661113988240    2.18099932892138
C         6.67073869672254    1.75392696471218    2.40352515643879
H         5.92998529056247    0.99462362895368    2.60544906623146
C         6.94204460610944    5.46858104268791    2.21526160839474
C         7.89917133152403    6.43331736048481    1.94591706937619
H         7.63058769148600    7.47767975021230    1.97463175782170
C        13.47585592194028    8.52606526954443    2.19957476292555
H        12.91831284285242    7.94294425639381    2.93530964797978
H        13.19107500492010    9.57291294162921    2.26103029182811
H        14.54527018736727    8.41671426383374    2.35734223783493
C         7.98258290059606    1.37724108162028    2.10087079874173
H         8.24327852702615    0.32942162515681    2.07208774115519
C        13.49800220692505    3.94658439539014    0.87944503681597
H        12.85259309415909    3.10772005210994    1.08630682039562
C        15.65925183909253    4.87802758140943    0.39154472631904
H        16.71522613738793    4.74463843881556    0.21565172587360

