97
CSD_code = VERNUB | q = 0 | S = 0 | Stoichiometry = C38H54P2PtSi2 | MND = 4
Pt        2.95740026247623    3.98101552977424    0.04057092098093
Si        4.87178434387132    4.15033311590192   -1.29733510138771
Si        3.79552843780536    5.25241141544495    1.81948544896575
P         1.79504951995526    2.59240034794029   -1.55097204710322
P         0.96170709646025    3.55972720323775    1.27711993544783
C         2.25959197031878    1.41837983302458   -2.85727965445183
C         2.49473127171141    1.86774159969591   -4.15412599830229
C         2.95597146526038    0.99604950025217   -5.12205518273822
C         3.20050333848147   -0.33032082953033   -4.80500187619477
C         2.98453583586401   -0.78097257007453   -3.51308570371981
C         2.52358149407255    0.08799105976378   -2.54197401869428
C         0.68846634144406    3.75664675877158   -2.40455124414210
C         0.77881066179826    5.08938735529661   -2.01847133021660
C        -0.06965748794625    6.03525079733339   -2.56342507777738
C        -1.01366729614136    5.64930144863494   -3.50150587455029
C        -1.10613838814176    4.32181996013552   -3.89203578506722
C        -0.26087392275769    3.37311460940422   -3.34548743370731
C         0.50514289286517    1.62208130919407   -0.62170195166122
C        -0.26307773256150    2.56943194810046    0.28841006007867
C         1.38168614814474    2.32398014187308    2.54087062901889
C         2.69684991879257    1.87628134910139    2.58176806016659
C         3.07149188920006    0.89655688161549    3.48353550853746
C         2.13279806851857    0.36227118887451    4.35069108345052
C         0.81941843677281    0.80576506344996    4.31353651135287
C         0.43986862162246    1.78057600590720    3.40957546584391
C        -0.10835316525118    4.74184341692465    2.14078551201406
C         0.03109260794150    4.98272485159884    3.50475223529213
C        -0.70422219546060    5.98339662866830    4.11280352444941
C        -1.57432944620648    6.76194979129215    3.36760154855158
C        -1.69840340006263    6.54548073322990    2.00456993398438
C        -0.96221357563250    5.54968475028770    1.39182328239958
C         5.49051917179701    2.33134451819393   -1.60753163371594
C         5.14549176414917    1.44260398705839   -0.41914420795050
C         6.98831422231897    2.26758714860749   -1.87328132492642
C         4.36773206575161    4.95871202557617   -2.99262475477384
C         4.30374601383001    6.47290725059006   -2.84528736548374
C         5.31288514788351    4.58638973937830   -4.12539186845826
C         5.57588546263444    4.76813612250290    2.43083494854438
C         5.59168283304059    4.46138959991509    3.92368248472625
C         6.60557688793913    5.84076606755889    2.10681713731814
C         3.60441424767346    7.17089736685816    1.64239657059648
C         2.33834988741764    7.51485342305479    0.86765262584267
C         3.57225987019176    7.85770503239773    3.00197638625603
H         6.13550518042873    4.87555178258781   -0.96194665007633
H         2.97442519636675    5.01273238690840    3.07368273859677
H         2.31557045048504    2.90403921281753   -4.40362315506229
H         3.13217755559897    1.35400881695498   -6.12596761431615
H         3.56593868935793   -1.00930676581970   -5.56107286594760
H         3.18349463753175   -1.81236754597417   -3.26009861084356
H         2.37566547671878   -0.26802270521239   -1.53212311204123
H         1.53857191346059    5.36807579741772   -1.28377633589036
H         0.00524843377028    7.06870276560828   -2.25819392930238
H        -1.67886505770630    6.38303324614920   -3.93266947541056
H        -1.84252624452678    4.02599307075733   -4.62538079089289
H        -0.33119723852321    2.33811965630340   -3.65297931334470
H         1.01549284283873    0.86520855461195   -0.01670127960115
H        -0.16093906278451    1.11336134181828   -1.32618230741407
H        -0.86944011514148    3.25454028318674   -0.31101529200831
H        -0.92805049932757    2.02171305038859    0.96357965075974
H         3.42368588733823    2.32060252224641    1.90462110953490
H         4.09472002657255    0.55265683220206    3.51147891297927
H         2.42213886952980   -0.39966066106247    5.05944663594251
H         0.08961103308029    0.38906246404215    4.99271178869256
H        -0.58412792845185    2.13021947786869    3.38580372000185
H         0.71874620396368    4.38582371461972    4.08628058580323
H        -0.59337605500505    6.16079320515346    5.17257114690160
H        -2.14614086407463    7.54363944361594    3.84510436552938
H        -2.36285774846448    7.16204566168326    1.41679000674470
H        -1.03969646735333    5.40736429028146    0.32194647311845
H         4.97176896329804    1.92738324161901   -2.48350830203779
H         4.06950103207499    1.46788614547072   -0.22136225551952
H         5.66969802006723    1.78641674411534    0.47064412798215
H         5.42827454750317    0.40502343977811   -0.60349589125389
H         7.25669388574985    2.86820042993466   -2.73760408823492
H         7.30585413561358    1.24046488153193   -2.05922947699734
H         7.53836583862308    2.64312596894030   -1.01333850490825
H         3.36505130547996    4.60934049123179   -3.26747559039351
H         3.63553621460703    6.75272688147354   -2.03468339190052
H         3.95135215833173    6.94490969535235   -3.76325581623184
H         5.28998099612398    6.86846182286284   -2.61514842947965
H         5.32197105324398    3.51077601853366   -4.28595955970394
H         6.32524232701978    4.91049910298150   -3.89464637380503
H         5.00964029179846    5.06683611482015   -5.05725000822581
H         5.88072000957686    3.85964413359752    1.90276853627914
H         4.90188114284290    3.65359027835774    4.15822969883074
H         5.29516990716274    5.33668600504608    4.49697164768185
H         6.58992795903249    4.16560948958063    4.24799260153108
H         6.61509706784467    6.04938808203365    1.04098068119836
H         7.60473867421340    5.51895361839127    2.40262661451643
H         6.38018554819832    6.76328125964601    2.63548001544914
H         4.45551723060547    7.56134181246318    1.07980870086079
H         2.37908573678298    7.07786593762222   -0.12838725573394
H         2.22075176904951    8.59385327664672    0.76224275631149
H         1.46064931572881    7.12536668338022    1.38140012757135
H         4.46836915498324    7.63478584124660    3.57480046470360
H         2.71031856544112    7.51967004511123    3.57415681407227
H         3.50155044576367    8.94008918294263    2.88806537609859

