72
CSD_code = VERPAJ | q = 0 | S = 0 | Stoichiometry = C30H36OP2PtSi2 | MND = 4
Pt        3.30060242108950    1.21622394131498    3.70429007851722
P         1.21576550763263    2.31773881909717    3.40117182639303
P         2.01401835266313   -0.63250673772625    2.95186540144308
Si        4.75531012062664    2.79460304384372    4.68166075587866
Si        5.52419921465146    0.44435791904729    3.84862099192339
O         6.12844667127787    1.83668186098273    4.56007225387571
C         0.36970256480623    3.72025251066076    4.18591778866714
C        -0.81145206618631    3.61915853095375    4.91161109477861
C        -1.33936865597949    4.73799817253270    5.53283032871243
C        -0.69042162629650    5.95778811967207    5.44664602331260
C         0.50124310056363    6.05900044316580    4.74415525325500
C         1.03225469150158    4.94553622140508    4.12537558660398
C         1.40014268435049    2.93063432163327    1.69500725376184
C         0.40941639915396    3.66770120350294    1.05527479579851
C         0.58958277404092    4.07380499368190   -0.25432208682561
C         1.75388299049279    3.74603745246048   -0.93153922483314
C         2.74492456338220    3.01467190793153   -0.29678629152673
C         2.57023530413028    2.60909590945351    1.01383758880191
C        -0.14816671599258    1.08121236927495    3.13529066521402
C         0.37449970423785   -0.06646011099676    2.28071524283670
C         2.36715511151657   -2.13644102837847    1.99764023230807
C         3.28572426539072   -3.02086340163370    2.56150091760580
C         3.67112721483217   -4.15747578252759    1.88014069734759
C         3.15679815121945   -4.41560231407888    0.61821756953802
C         2.26469674053240   -3.52773557209008    0.04172064140394
C         1.87363596625015   -2.38778136371397    0.72270035081161
C         1.46320462854749   -1.33921706483606    4.53807671315809
C         0.66603534691721   -2.47625055480017    4.61355298442647
C         0.24942016633250   -2.94515264950307    5.84602073399148
C         0.62234883152603   -2.28342034392435    7.00565030617428
C         1.41887769306646   -1.15180306942164    6.93503812818054
C         1.84024754277400   -0.68106432647837    5.70477123232860
C         5.14422845465336    4.41565167921341    3.73415242912160
C         4.52919531480992    3.19843943968548    6.54109153344817
C         5.93725522852623   -0.99882180038350    5.04108625089503
C         6.48230651503720    0.19267884196839    2.20836601622502
H        -1.32421009128869    2.67177904982259    4.99320003744450
H        -2.26239291297070    4.65600771171997    6.08870351788710
H        -1.10790200967039    6.82729027124419    5.93233400048432
H         1.01512175112914    7.00725239985209    4.68495398398929
H         1.96785797144874    5.00589109455332    3.58489660384572
H        -0.49487371966449    3.93084238459046    1.58787267865592
H        -0.17924055309411    4.64894972223488   -0.74993223143946
H         1.88912436344909    4.06599871484988   -1.95432804165066
H         3.65401384549285    2.76375529353672   -0.82321671839771
H         3.35148403669921    2.04423074771837    1.53732481788615
H        -1.00925497200126    1.56513630125332    2.66354162958467
H        -0.44924582867575    0.70001337596451    4.11683230220814
H        -0.33365425526303   -0.90093624397058    2.26150716460813
H         0.53620058045634    0.28472363001222    1.25615085098168
H         3.68869868402159   -2.79979534356115    3.54112257887953
H         4.37565501681835   -4.84321608880618    2.32750162081795
H         3.45752321426383   -5.30369707015588    0.08245081381609
H         1.87177625756298   -3.72253750326874   -0.94586807869242
H         1.18309047097388   -1.69905853813544    0.25797220141222
H         0.38358047245091   -2.99721440103601    3.70830124601360
H        -0.36741351500556   -3.83036762619366    5.90449956790241
H         0.29425131510056   -2.65458317268258    7.96551992864566
H         1.71308199128452   -0.63946572203490    7.83917779019148
H         2.48516900898469    0.20333469067343    5.63064809085871
H         4.46411946636855    5.20160896353047    4.04248061083493
H         5.06476065351508    4.30039697541640    2.65830271599811
H         6.15478289190229    4.73481977702011    3.96367675372027
H         3.68903563618200    3.86852841923867    6.68599199050512
H         5.42144779571993    3.68777897889442    6.91568749731777
H         4.36180866303713    2.30747201149966    7.13636245060557
H         5.87197254205428   -1.94686539420923    4.51922825336684
H         5.27280991878603   -1.03587542854801    5.89790941423613
H         6.95136788881834   -0.88486344252272    5.40771489347379
H         6.16152284591677   -0.71882689840870    1.71615312042389
H         7.54284766234355    0.10896733875574    2.41794824049233
H         6.34170774083527    1.01965344012543    1.52105563965279

