67
CSD_code = VERRIT | q = 0 | S = 0 | Stoichiometry = C27H30O5P2Si2W | MND = 6
W         2.66877604165280   -5.54693958681570    2.36690470038411
P         5.11778292797254   -2.78059940365124    2.95786919853218
P         3.17131063615317   -3.14545367882758    2.02598315788226
Si        7.81899393573754   -4.00773659705238    2.16287506232517
Si        1.81669190289615   -2.07917212551314   -0.68649016924872
O         3.90254312922396   -5.24286785054556    5.24105070619304
O         5.40559608437265   -6.48028528000277    1.16526172841444
O         1.64250377052785   -5.90214713781008   -0.57448309371574
O        -0.28555865643788   -5.10818966877802    3.33197807991456
O         2.16643156287046   -8.59587243198953    2.84934529784678
C         6.11831812372818   -3.40171542745987    1.56237480343063
C         5.72665076938410   -3.42772771640119    0.27739701522908
H         6.43383063672915   -3.81983310085552   -0.44587549516696
C         4.51621954761922   -2.90501401049301   -0.30926113354579
H         4.58526020791041   -2.72033419685737   -1.37583072534117
C         3.35496679162427   -2.61888542266984    0.31114489628528
C         5.32373545922276   -0.96993447331550    2.76519748412078
C         4.86963503813625   -0.19155671559054    3.82796788906870
H         4.44172600740761   -0.67892167551670    4.69434794668226
C         4.96343498279397    1.18591187848088    3.77970710921836
H         4.60497458794308    1.77989861857815    4.60755025408876
C         5.51861658249446    1.80098273983000    2.66973003217104
H         5.59340964185822    2.87757702740181    2.62769760401547
C         5.98626406520848    1.03216332246153    1.61656360396488
H         6.42666452960234    1.51071697383141    0.75346821379000
C         5.89439365837733   -0.34721584723986    1.66151620119688
H         6.26694650744129   -0.94021887513992    0.83926623271263
C         2.22321297449284   -1.83053476382275    2.84011298332769
C         2.25434181137603   -0.51713738721282    2.38252523917577
H         2.82183319575619   -0.27382785615786    1.49692593640494
C         1.56661008697701    0.46952557350903    3.06404915973812
H         1.58856240995806    1.48645455220286    2.69989648287534
C         0.86334416076521    0.15953504957347    4.21661293441320
H         0.32728925065715    0.93238525581601    4.74718356432709
C         0.85459411415250   -1.14175924213859    4.69307270677707
H         0.31657613614695   -1.38324835959229    5.59787868561282
C         1.53352587816465   -2.13313323481965    4.00902960656156
H         1.53481520042003   -3.15165382110299    4.37872019940808
C         8.64292445678684   -2.49485942292784    2.98419416684928
H         8.00059531083568   -2.08511579207749    3.75944671455365
H         8.83657400530404   -1.70125746727405    2.26877675195986
H         9.58822917922676   -2.76263575912041    3.44461803093907
C         8.86236513104582   -4.65078458387911    0.70599550898222
H         9.82623337385208   -5.00192984627681    1.05915344977576
H         9.04756638589448   -3.87798482747254   -0.03369832899841
H         8.37427046466229   -5.48274855324114    0.20855891692559
C         7.53646857149400   -5.36901106282359    3.46492553804148
H         8.43247273036685   -5.54081006699431    4.05306435070549
H         7.25986530300825   -6.31228214686408    3.00478049539169
H         6.73911953791364   -5.08949524363881    4.14893222494856
C         1.89063343240696   -0.21047784848848   -1.08930405837918
H         1.37521618260800   -0.01555336104108   -2.02418143790006
H         2.91286236726449    0.13925765189042   -1.20205521052106
H         1.41410492355809    0.39402980158963   -0.32471200714481
C         0.25403280369360   -2.51668455027145    0.30864314210657
H        -0.60527041607760   -2.63824714789798   -0.34352828102336
H         0.00806932513675   -1.74887744905527    1.03595779546827
H         0.38953669788148   -3.45046193522018    0.85149084869287
C         1.83339269765044   -3.02767944637344   -2.34201094765928
H         1.92652224732962   -4.09901153202228   -2.19926862790352
H         2.65183952349623   -2.70625214784859   -2.97899084202004
H         0.91136759933858   -2.84885628231824   -2.88669039501340
C         3.42967219132086   -5.34761429055544    4.20604659523033
C         4.45690485023306   -6.04464719449182    1.63332331340928
C         1.98715019330192   -5.74233762530509    0.50490238372739
C         0.80819431225181   -5.20529587175345    3.01217977124483
C         2.34386292735993   -7.47821110253444    2.67718603884816

