47
CSD_code = VERWOF | q = 0 | S = 0 | Stoichiometry = C20H20Cl2N4Pd | MND = 4
C         4.13123422721833    1.24685983934468    2.55986269586447
H         3.13237102798517    1.14176928790301    2.94325519190289
C         5.85671307539961    1.13068785965317    1.27880268209894
H         6.41953855231528    0.92104141401457    0.38772085268875
C         6.26075935880839    1.69097073360693    2.45485561172257
H         7.22285825466659    2.03429612129059    2.77372930584385
C         5.09315104593523    2.33598210213077    4.57833662328589
H         6.05974547226986    2.19747741975510    5.06924283521866
H         4.32376341669203    1.80913278207672    5.14838812769508
C         4.75839491740799    3.80573706850716    4.47275108820903
C         3.43357431867646    4.21644019145772    4.40976842185802
H         2.64131222686813    3.48532756745779    4.47862367063162
C         3.12440229761816    5.55691420521577    4.26305079893768
H         2.09146447763649    5.86730198492754    4.21721619347800
C         4.13703951472759    6.49684969623289    4.17283696100566
H         3.89562216994772    7.54260335193990    4.05651200223947
C         5.45979873685714    6.09297920389588    4.23125422480225
H         6.25276438507473    6.82225128543505    4.16005195356472
C         5.76922242745131    4.75230774434203    4.37852365932358
H         6.80311536563800    4.44122477566246    4.42400700605217
Cl        4.43042057240788    1.17456883956483   -1.66190937114277
N         5.16260587495189    1.74963707531685    3.25989136140879
N         4.52454780278239    0.86045636296105    1.36331801353765
Pd        3.38163780987331   -0.00003094136872   -0.00001289376485
C         2.63205256922590   -1.24714185941855   -2.55984564787207
H         3.63094619527786   -1.14229003647070   -2.94322402218668
C         0.90657313994905   -1.13054770174249   -1.27882362285136
H         0.34377958296736   -0.92075006668992   -0.38775665533177
C         0.50241832410453   -1.69073800579285   -2.45488171247459
H        -0.45976357033805   -2.03380687243904   -2.77377946724209
C         1.66991457352947   -2.33599418426195   -4.57835653364070
H         0.70326331568328   -2.19752090598066   -5.06915953444936
H         2.43922777514503   -1.80913397296482   -5.14849860268138
C         2.00471952532171   -3.80573665610689   -4.47276986575895
C         3.32956553646635   -4.21646980528981   -4.41057800913741
H         4.12180671985023   -3.48539303615489   -4.48005774463476
C         3.63878956146854   -5.55693088882520   -4.26384124166577
H         4.67174706626065   -5.86734106441068   -4.21859221621167
C         2.62618133108774   -6.49681649595837   -4.17280248789351
H         2.86763940976305   -7.54255585708722   -4.05643434233993
C         1.30339678726287   -6.09291373654847   -4.23042545797595
H         0.51045447641895   -6.82214911371210   -4.15859195206714
C         0.99392141392403   -4.75225971575636   -4.37772687612811
H        -0.03999000923009   -4.44115096739979   -4.42261026364072
Cl        2.33311756303263   -1.17480804967914    1.66187742960753
N         1.60056871848188   -1.74965257459649   -3.25990291365786
N         2.23881266513818   -0.86068440403982   -1.36329527622910

