53
CSD_code = VERWIB | q = 1 | S = 0 | Stoichiometry = C20H20AgN12(1+) | MND = 4
Ag        7.54011491010263    6.94927054234261   15.86163737600735
N         9.56504333478200    9.45480749731183   16.77751284874900
H         8.86157716371056    9.92201553985364   17.32862302954663
N         9.19854929891587    8.69109410783332   15.75556082507199
N         9.43359549356825    5.55050608011993   15.57654287169236
N        10.25855434212841    5.88966843242351   14.58340707591139
N         7.97891873858731    7.31266135119369   13.49416615474691
N         9.25589000668239    7.49137254158294   13.15675983182504
C        10.89992935657555    9.47960492554257   16.94407844942391
H        11.37383922175684   10.04351617569761   17.72078177131170
C        11.43511323819320    8.68167325938955   15.95988827527250
H        12.46747563138549    8.46599734159572   15.78128899001976
C        10.33439677575195    7.24635963503272   14.08935307438593
H        11.27708627735584    7.34837117497231   13.53728272474225
C        10.32491761806273    8.20999245101302   15.24119975167448
C         9.57275586333850    4.24928644737106   15.74359091052067
H         9.01770372709497    3.73800349503066   16.50518939021742
C        10.50897701727563    3.72959782017296   14.84106523819919
H        10.83171552496258    2.71439564331158   14.74423498618108
C        10.92416249909349    4.81423319157120   14.10945172443698
H        11.63200336321358    4.89277315118533   13.30940622574952
C         7.26877753413602    7.59418990872278   12.41855024228357
H         6.20002291382644    7.50849133022136   12.43641427748211
C         8.10165267832389    7.96632247028133   11.35680646298242
H         7.81513444241933    8.24569540783260   10.36491435345292
C         9.37287866110297    7.88367327387233   11.87090137026235
H        10.32466840293759    8.07607789694978   11.41903032833630
N         5.51533949262345    9.45493216223252   14.94579336747405
H         6.21884462973803    9.92225661963032   14.39483367320701
N         5.88174716508424    8.69118597150988   15.96775331362219
N         5.64669886342951    5.55043393895782   16.14671559660114
N         4.82163355033577    5.88962925023488   17.13975090217793
N         7.10121498463881    7.31273760324484   18.22907585994973
N         5.82421786898824    7.49136438175651   18.56642542929470
C         4.18047948301379    9.47962279733080   14.77902736133056
H         3.70663966455603   10.04356646979637   14.00230225100410
C         3.64521410147529    8.68157920502370   15.76308170081525
H         2.61284213372102    8.46578564916488   15.94149717269781
C         4.74577133679787    7.24633174813114   17.63376816958581
H         3.80304591945779    7.34836236003800   18.18577446223815
C         4.75534385897320    8.20995658817746   16.48191483015472
C         5.50751470855902    4.24921900281015   15.97965465229987
H         6.06265163559662    3.73791232962254   15.21813447986728
C         4.57120230781969    3.72955922799054   16.88210153044828
H         4.24842052478504    2.71436793224001   16.97889785181956
C         4.15594436094948    4.81421594950022   17.61364254269442
H         3.44802440883646    4.89277922293030   18.41361615422445
C         7.81128864059642    7.59428799053549   19.30472981030435
H         8.88005083803339    7.50866696525338   19.28690854407888
C         6.97834421031764    7.96638768023421   20.36643087161025
H         7.26480075658832    8.24575994658739   21.35834105221265
C         5.70714562224347    7.88364521733781   19.85228256164443
H         4.75532489754720    8.07600269727228   20.30410729812902

