55
CSD_code = VERWAQ | q = 0 | S = 0 | Stoichiometry = C22H30CrN2 | MND = 5
Cr        5.29907653796172   13.94833202770873    8.71900128903621
N         4.55134074017986   14.08959997095882    7.25720411052397
N         4.86325202430996   12.50599131901671    9.39435377228008
C         5.83695565271960   15.80597241840548   10.26817758528957
C         6.52908693188407   15.23280499076255   11.35230028037265
H         6.00265688725786   14.55038477241147   12.00940055628243
C         7.84868260102426   15.55374182297851   11.60176842041663
H         8.36077723246662   15.10695054279921   12.44240657571645
C         8.52128361255649   16.44900895475887   10.78167847165965
H         9.55345891052397   16.69628810300086   10.97995085586284
C         7.85861351326590   17.03022428978983    9.71115260629480
H         8.37720987927404   17.73536298669121    9.07672467883174
C         6.53785892552913   16.71600598689872    9.45287078939361
H         6.01581132159001   17.19895428515505    8.63319552013642
C         4.46953995985942   15.41487722342206    9.95066023173562
H         3.91060156571096   16.20562109180509    9.44190065238456
H         3.91123629068794   15.07536795237418   10.82673667776510
C         7.61877967728592   12.46700071050937    7.50178669460328
C         7.95248318845239   11.29556099771458    8.18871802286403
H         8.02164940175319   11.32307329948872    9.26814654054543
C         8.18278649262779   10.11262072985808    7.51388625077811
H         8.43547797670442    9.21829556670359    8.06681466494685
C         8.09772816305981   10.06717158179649    6.13133268135522
H         8.27676863238385    9.14162980235698    5.60424351923833
C         7.79394529424777   11.22397882863086    5.43130435026383
H         7.74080598751568   11.20135662040603    4.35159549986591
C         7.56666953409533   12.40764586507138    6.10561136879174
H         7.33798364278300   13.30846978719852    5.55242201905367
C         7.33323161932237   13.71375929184600    8.21998186445904
H         7.62448717950623   14.57691438250373    7.60592370538452
H         7.90238114319973   13.74608038721788    9.15977200276275
C         4.22772164654015   13.03389994447500    5.09822043853799
H         4.71472230706910   13.85394895789236    4.57580608732936
H         3.46549417440385   12.60614544910464    4.45188751333938
H         4.97489740208966   12.27855355000848    5.32314560828484
C         2.55665160179216   14.64714218662594    6.03342267688563
H         2.12123867040871   15.05753075800465    6.94183522418135
H         1.76629455981245   14.23254009829856    5.41300146687519
H         3.04793628760975   15.45096725490523    5.49033166828112
C         3.58633758315738   13.55603682706142    6.39653572214275
C         2.83033774573444   12.41159174905633    7.14166440112788
H         2.28398888137523   12.88466865100432    7.95769162275800
H         2.10147120620081   11.99425766475667    6.44346450526667
C         3.69770996849058   11.26903679626615    7.69798248401700
H         4.64007329584258   11.22322426608147    7.14895278589038
H         3.17202445470924   10.32309866345798    7.55156627937089
C         4.08633244823640   11.35770661578229    9.20744029322146
C         2.83898630812168   11.41618830246474   10.11231482582257
H         3.13640844967148   11.28616557957501   11.15018054729474
H         2.14112223657680   10.62821687078836    9.84201408760471
H         2.35007786662618   12.38255331264429   10.01800165255042
C         4.88829883836161   10.08917832853436    9.56112121748597
H         5.74160360900564    9.99636468830042    8.89476858170516
H         4.26018241875190    9.20698625139371    9.46603976563137
H         5.25046751966528   10.15685064327785   10.58438828551775

