59
CSD_code = VERYOG | q = 0 | S = 0 | Stoichiometry = C28H25ClNO2PPd | MND = 4
Pd        1.33790624011908    4.58698179015501    2.66922065985001
Cl        0.29810959706902    3.47228777548417    0.94507207723930
C         2.25032898494313    5.68096680706031    4.06981332859117
C         2.03870279984158    7.00410810703288    3.94162440433196
C         2.72649175978329    8.04116137140152    4.79666918320206
O         3.58000853843129    8.88122778566422    4.00627118115866
C         4.74499571812186    8.35693600659467    3.61240574459609
O         5.14358997403086    7.27053032425640    3.93682400600457
C         5.47803102756647    9.31561208396745    2.70831576591821
N         0.57326929528170    6.42308784695020    2.18573852179986
C         1.12380119037087    7.43341424957145    2.89465150248052
C         0.79813761157201    8.76033368733567    2.60508731744340
C        -0.10416141683332    9.03334883208424    1.59511048036079
C        -0.66804512588465    7.97953000366510    0.88964656890164
C        -0.29327712824705    6.68669771374344    1.21742183221374
P         2.35373877869324    2.70939686602559    3.27823408169506
C         2.33799838807636    1.21593593379431    2.24419315497578
C         3.43954493536844    0.80389318271416    1.50446342630144
C         3.34296309334273   -0.31558489391356    0.69584891691072
C         2.15209208162881   -1.01710722765057    0.61581018042447
C         1.04863959352504   -0.60049558865906    1.34495905189305
C         1.13834362493491    0.51364784737132    2.15551975932468
C         1.76517030518350    2.06889207502538    4.87366968404227
C         0.83492211036790    2.84162353051916    5.56278585621598
C         0.33277727099737    2.40489980963122    6.77542045208844
C         0.75400607908603    1.19337983688780    7.30025991850780
C         1.66274257348974    0.41036444077901    6.60546867842574
C         2.16459457195312    0.84011514082896    5.39031527254429
C         4.12378358272935    3.09958186536343    3.44751130088899
C         4.58838452374053    4.06327296673215    2.55198735626825
C         5.90963232496280    4.46251947782598    2.58352444677704
C         6.77113068665260    3.90959919556505    3.51886368993674
C         6.31128389435709    2.95983278601642    4.41506746418533
C         4.98880087165802    2.54909986108040    4.38227788795382
H         2.93877965213096    5.35724346015017    4.85343998955930
H         2.01469363287930    8.72418130761052    5.26795176130140
H         3.32821890272569    7.54130388637710    5.56204312907840
H         6.54619075903689    9.12985991827934    2.76639732859768
H         5.24872650470190   10.34097535868336    2.98128987366440
H         5.14692072481527    9.14414568749281    1.68550029247809
H         1.26250698715154    9.55933835045867    3.16002973815776
H        -0.36512407819412   10.05453103629094    1.35845492002313
H        -1.37764951254527    8.15230480706504    0.09672205534075
H        -0.69430100074604    5.83033054443201    0.68434605339952
H         4.36637817224691    1.35855627397096    1.55979029161300
H         4.19966445504810   -0.63632639621915    0.12092074493184
H         2.08002566769664   -1.88552990245887   -0.02245827895169
H         0.11641410814255   -1.14075365112098    1.27193635124649
H         0.27926966791639    0.86203787611608    2.71446420208205
H         0.50416642042349    3.78604586974188    5.11967064665335
H        -0.39027944892511    3.00312323837479    7.31005073836011
H         0.36379803148554    0.85127479767672    8.24742557950062
H         1.97467730588544   -0.54141237043505    7.01025879400076
H         2.85083223791566    0.21864276985480    4.83098426160941
H         3.88340717684304    4.50210693204132    1.83581297409670
H         6.26769127932634    5.21275020889563    1.89564937199499
H         7.80156231542607    4.22982105252407    3.55596545971260
H         6.98365606592155    2.54012960325857    5.14933030308880
H         4.62833561581190    1.81902784999371    5.09247026495425

