65
CSD_code = VESLEK | q = 1 | S = 0 | Stoichiometry = C29H34NZr(1+) | MND = 13
Zr        2.69933058609175    2.49139395545406    1.96439334000661
N         1.87166254777537    2.74080220854474    4.04833849892882
C         4.71195639514688    2.23323116806460    3.54004811084893
C         4.83275365118111    3.48545561104382    4.18677073766939
C         4.60933877597578    3.61570769399877    5.54296040104548
C         4.24958801582635    2.51553198989086    6.31037671451923
C         4.16231723676164    1.26663109309078    5.70852402129957
C         4.38236315706480    1.12305248397232    4.35365950296097
C         4.89697316198417    2.08753746729144    2.09638250419292
C         1.52507897513899    2.78040301318575    5.14743852694165
C         1.01511687828778    2.83182011427058    6.47227592560713
C        -0.05626366264300    2.19209648721117   -0.15244671987685
C         0.87034489852574    1.38412598164756    0.71187230316549
C         0.68515474473579    1.07370204602082    2.08072334093682
C         1.76055359607800    0.24308593414358    2.49938890196698
C         2.62478850055193    0.05370819928379    1.39147855814235
C         2.09155733501822    0.78983305531676    0.29356642724479
C         2.65017946224790    0.68809455678175   -1.10320296963893
C         3.37296262169698   -0.65298482993648   -1.26033248600400
C         4.39081265991272   -0.83629753450784   -0.13767679101144
C         3.67910362187201   -1.00598075409301    1.20757978072559
C         0.65759164356642    3.45763204240310   -0.67899510602957
C         1.62399147839700    3.99352548008368    0.33996985114588
C         3.03455061421210    4.08192466992406    0.18601152499060
C         3.55681438026642    4.74787322619381    1.33155341039635
C         2.48504846557380    5.01982552078413    2.21004817639970
C         1.29170199771079    4.52926809594387    1.61253335594240
C        -0.08517147006419    4.84612659234967    2.13680622103352
C        -0.01442193861530    5.57302484150610    3.48513768965940
C         1.11137733528323    6.60490090742545    3.50286365126842
C         2.47506760654345    5.91182722791256    3.42184762559841
H         5.17936424681033    4.34404778284214    3.62355208715449
H         4.73988508630698    4.57859884889552    6.01547343143082
H         4.10149132138939    2.61997720100250    7.37420130253241
H         3.94322732733936    0.39543565072942    6.30926648525097
H         4.37432312393398    0.12975506003317    3.91925026106040
H         5.25845787766165    1.09144521412552    1.83289196263502
H         5.56297713383141    2.85013492308964    1.67612989956163
H         1.29800660947783    1.92731227523633    7.01072998545410
H         1.42120926711905    3.69818968487601    6.99523990290070
H        -0.07375654139835    2.90690825894168    6.44602148763253
H        -0.93892706035629    2.47152148092849    0.42732490457026
H        -0.40069212200202    1.59158995257836   -0.99913901886766
H        -0.21247040677302    1.27746552395146    2.65535981860201
H         1.80651434245817   -0.29897440729279    3.43641935446119
H         3.36401532315217    1.49904219496050   -1.30715838208725
H         1.84215689131056    0.76005691117326   -1.83516419249236
H         3.87247421202422   -0.69016590118798   -2.22863401444954
H         2.64393772488305   -1.46424209005571   -1.22403676223861
H         5.05057059622992    0.03680375354345   -0.11328102663945
H         5.00513184310546   -1.71596468796415   -0.33205863138174
H         3.17485642219357   -1.97943882998551    1.21460898885196
H         4.40648371053403   -1.02643183705229    2.02419868949577
H        -0.08842059023585    4.21882226269037   -0.92383928257101
H         1.20299114132497    3.22383743571430   -1.59618300235454
H         3.58158796378783    3.90592255409408   -0.73481222103607
H         4.55889166173445    5.14864835732391    1.41506742909151
H        -0.70262680255083    3.94660747140274    2.23947969934573
H        -0.58390037274315    5.49595823189462    1.40871526680274
H         0.15224819948928    4.84987367423461    4.28874968265886
H        -0.96905617927689    6.06521541142517    3.67584366791770
H         1.05357479466006    7.20378493093204    4.41245344548561
H         0.99781389551780    7.27476667257104    2.64924671796510
H         3.26794739452350    6.65862574208839    3.33546973262630
H         2.65268869243152    5.34909174705876    4.34711730055429

