61
CSD_code = VESMUB | q = 0 | S = 0 | Stoichiometry = C20H34NO3P2Re | MND = 6
Re        3.99870365745331    2.97897025752597    2.69977587805243
P         3.83935453656063    5.36811337258295    2.93832169195644
P         3.79582430521696    0.58851317656660    2.77470670652377
O         2.00704732838472    3.16454409809875    3.81344302142250
O         6.06225307462550    2.96665781977653    0.40436111745955
O         6.07697321208705    2.99301649886064    4.99450597040029
N         1.36264577312543    3.14348778645769    2.64009842717515
C         5.31441707947970    2.95900101848151    1.29055241993022
C         5.33067207596521    2.99031276357301    4.11344869484407
C         2.15012578493467    2.97157890200063    1.62848434666364
C         5.10843374441509   -0.29362780082818    3.69692278903717
C         3.83869447294993   -0.28838408565595    1.16841464694674
C         2.29283152906576   -0.10790242625107    3.55556114378722
C         5.39220865485436    6.28747688279576    2.62970549713113
C         2.66519834685881    6.37925691008994    1.95161183979054
C         3.44517687467134    5.89452457939809    4.64503824172028
C        -0.09124532274756    3.37396893555903    2.75284561423940
C        -0.31219315591541    4.41716934183736    3.85541886559509
C        -0.75647174295282    2.06175228310096    3.17954931730088
C        -0.69827091024580    3.89304553239408    1.45062737361998
C         1.71798151447321    2.75577203444335    0.25535691033959
C         2.20056175455721    3.58319912033257   -0.76060417007597
C         1.89614012006761    3.33560607372689   -2.08144272773643
C         1.13216557648189    2.23154231819304   -2.44739554186484
C         0.69102469168704    1.37872780213924   -1.44600529608607
C         0.97453754006726    1.63463758162015   -0.11771448310919
C         0.82663821249899    1.96414319692037   -3.88983990632911
H         5.08681237589024    0.02555005862650    4.73747115461628
H         6.07087081624801   -0.01716487960503    3.26991959360211
H         4.96790172012210   -1.37238914996059    3.63666853582638
H         3.05563146296819    0.09668211588623    0.51798365737907
H         3.71202126651010   -1.36080465872265    1.31238407976238
H         4.80063861915910   -0.08508808119669    0.70159796381812
H         1.42578055647541    0.11556121312586    2.93831829299914
H         2.16078970654303    0.35685723777101    4.53145991322112
H         2.39289232982786   -1.18729943045909    3.66846533276251
H         6.16963778986032    5.87676323354069    3.27091232166720
H         5.26332665482536    7.34997717319081    2.83183500610731
H         5.68958659279548    6.13846732347463    1.59368399957322
H         1.65161550928572    6.00080803828485    2.06062211735129
H         2.94862597400696    6.32310687975903    0.90211602033028
H         2.70106842283751    7.41714843488747    2.28298046990338
H         4.23169638299914    5.52551246063994    5.30159760470457
H         2.50338367922255    5.44455010898560    4.95035751860469
H         3.38507258376098    6.98090619322158    4.70842272526212
H        -1.37650081358770    4.53309161045917    4.04531269041454
H         0.09447103663571    5.38375528533138    3.56265085630274
H         0.17687064482385    4.09949915595707    4.77317930670571
H        -1.81622041323006    2.22475672016236    3.36234794091371
H        -0.29829831624848    1.69550322441180    4.09628533134556
H        -0.65908552139083    1.30333496366056    2.40552433097931
H        -0.79551981929477    3.11014541499008    0.70422039749665
H        -0.09571336507225    4.69435737226911    1.02643508434277
H        -1.69113878651355    4.28734684309151    1.65901415088963
H         2.82696415729862    4.42286794906386   -0.49486845796478
H         2.26668630429055    4.00022471516687   -2.84934654453460
H         0.11437463120605    0.50082545563659   -1.70546634995638
H         0.62747914353295    0.94229814925210    0.63906070765693
H         0.10139993131664    1.16031930157887   -3.99287183694660
H         1.73522358369088    1.67790383786646   -4.42005313390465
H         0.43002643217390    2.85782175621289   -4.36966916933221

