43
CSD_code = VESPOY | q = 0 | S = 0 | Stoichiometry = C15H24Br3Re | MND = 9
Re        3.15316123520950    0.63651146046109    2.76148732074921
Br        5.63925798935921    1.11669551568934    2.74437822519925
Br        3.09405567887841    1.87322741455395    0.68145408853628
Br        0.71168623818218    1.25620286247437    2.96548579544050
C         3.23523409570311    0.47117732895721    4.60750979406993
C         3.30114769436327    0.65190287203645    6.03393068495573
C         4.30462550209533   -0.32424356672472    6.66864571852923
C         3.77577439637518    2.10528902907281    6.25372321724198
C         1.89921569088377    0.45941369457986    6.64007933369006
C         2.35951645624645   -1.72650118979737    2.52530192336911
C         3.80649658704897   -1.73851588476352    2.40259041060305
C         4.10381302569760   -1.65355164326260    0.98961696847897
C         2.89662679329708   -1.57999943195470    0.27303113669719
C         1.82681736859544   -1.64140722978570    1.18656972299843
C         1.56663061359163   -2.27720637182547    3.66993728099322
C         4.76809018383585   -2.33963862996448    3.38011656375873
C         5.47707841705532   -1.62140465020141    0.44931822553253
C         2.77826682830360   -1.34399759708495   -1.18844671205021
C         0.38262197889332   -1.59463695744402    0.88949177537795
H         3.94357840722102   -1.34679180095628    6.59292186638384
H         5.26661761758081   -0.25077117267967    6.16838967264185
H         4.43232795729065   -0.07838521453964    7.71966332363557
H         4.77020676911316    2.24129117902532    5.83628117918208
H         3.09368382592678    2.79855111862298    5.76678342679726
H         3.80252872678408    2.32201459370403    7.31846602713833
H         1.18596157314878    1.11982132442832    6.15486131559658
H         1.56343841042371   -0.56523687908304    6.50693182388969
H         1.92982406715799    0.68767372032254    7.70223528752803
H         2.14086992299334   -2.24059270638059    4.59051830502122
H         0.64712441699194   -1.71247467916572    3.80904221510582
H         1.30534906459658   -3.31505497643583    3.45810443251791
H         5.72724140307129   -1.82780092936752    3.34378404084366
H         4.38235045334619   -2.28086721707615    4.39254819363124
H         4.92764118153571   -3.38790676737271    3.12288293001992
H         5.99750271594332   -0.72736096685864    0.81284584820263
H         6.04983869091614   -2.47558246207207    0.81049902220453
H         5.48607059871784   -1.60824545261822   -0.63653376431092
H         2.83752206885940   -0.26877713169844   -1.38583575530845
H         3.58413888739266   -1.82860872509475   -1.73436750150449
H         1.82740494056796   -1.70246879664775   -1.57371380578051
H        -0.14155103287688   -2.39760556304000    1.40665454513894
H        -0.04059939267362   -0.65614280675623    1.26890981259584
H         0.18361195235662   -1.65439471327808   -0.17649391534234

