38
CSD_code = VESQIT | q = 0 | S = 0 | Stoichiometry = C15H15Cl2N5Pd | MND = 4
Pd        3.05934236434899    1.80327581724424    6.43206377775903
Cl        4.03965663942884    1.41447441409093    4.48752467822724
Cl        1.08342460515339    1.57808582798457    5.46818236490382
N         2.20493521189923    2.20769525515373    8.22176123449736
C         2.76504879889501    2.03323041454575    9.41530540324610
N         1.99908472808251    2.63161005873798   10.37183679986516
C         2.28596940490495    2.81932075035176   11.76715587755683
C         0.91852664293490    3.16763044163795    9.73947378863560
C         1.05074685643967    2.89574389889700    8.40922420101132
N         4.87445696073642    1.90960272030495    7.39478237859857
C         5.06442339479944    1.50801976379729    8.65478875262443
N         6.38999107345108    1.28231979969842    8.87124356731779
C         7.01247586193711    0.83200333880582   10.08304860718682
C         7.03745105470017    1.56882593879770    7.71377225105065
C         6.09158697868699    1.95305875026816    6.80314311394007
C         4.03047402772662    1.33276646726844    9.65639202458021
N         4.31311487866224    0.61375399045771   10.68692489812543
C         3.41151936906415    0.08636980840362   11.57483034176485
C         2.18376368345575   -0.44787648238645   11.16284566373423
C         1.36334803010806   -1.08091066278071   12.07447717837736
C         1.73751190657300   -1.18276578670134   13.40534526406286
C         2.95767579116591   -0.66864466345172   13.81793571269678
C         3.79651541845683   -0.05184032611424   12.91297001997727
H         1.91256524691561    3.79549100703037   12.07661729421511
H         1.80617851576464    2.04817686135943   12.37427369354244
H         3.36057310930221    2.78106522164729   11.93789163771813
H         0.16138122223409    3.70216655679979   10.27485127240399
H         0.40341126403723    3.12717761091429    7.58423970521601
H         6.66175845984737   -0.16806452178135   10.33705174062698
H         8.09155006717812    0.82070104671395    9.94189182675734
H         6.75960091484681    1.49669150030437   10.90912335985528
H         8.10010211866656    1.47981079081304    7.61824181323389
H         6.19825888047081    2.23139549114370    5.77204217449325
H         1.90612176273220   -0.39504968049499   10.11933600455804
H         0.42384293570796   -1.49761089907863   11.74308727645469
H         1.08781291516181   -1.67232419917168   14.11446048727436
H         3.25937069703040   -0.75848765336068   14.85094971165769
H         4.74882820850171    0.34941133215147   13.22551410225097

