57
CSD_code = VESSUH | q = 0 | S = 0 | Stoichiometry = C20H28N4O2P2W | MND = 6
W         2.01656971160267    3.17048688280968    2.90443276739964
P         1.32992617198403    3.69105164570443    5.17087053145816
P         2.85731256369829    2.74808977709189    0.66897396079407
N         1.24184165021383    1.28815142676447    2.91209957184297
N        -0.01863599319671    1.14269520889156    2.55059032738184
N         0.07040320635451    3.32741196901256    2.33078910020576
N        -0.64907871988040    2.22233007865063    2.29311091421435
C         2.87780131965736   -0.01569761634318    4.10993538694514
C         3.54880456217032   -1.20526234736769    4.30680158375456
C         3.24871340821194   -2.31644223137446    3.53386919134658
C         2.25240075005686   -2.23656478308402    2.57428731855454
C         1.56767629422953   -1.05425589956123    2.37774210953534
C         1.88776240560062    0.07936480839713    3.13181998898286
C        -0.08962909182826    5.54843245323486    1.40879657444942
C        -0.81272475795818    6.70210524913639    1.18456619482635
C        -2.12463628042152    6.80384475551686    1.62141235732206
C        -2.71914874264199    5.73053115432075    2.26514007260602
C        -2.00779119615889    4.56781041828934    2.48327739900127
C        -0.67360411488191    4.47102003558984    2.07522574070284
C         0.35412459121771    2.38914116981446    6.01679718948741
C         2.63210614158572    4.04844014554051    6.40466889135801
C         0.22949318791019    5.14073628136384    5.40460955733749
C         1.57096348951048    2.56403127760510   -0.62459676030530
C         3.97569006821068    3.98432779742295   -0.08440261075176
C         3.82221779680710    1.20960752774833    0.40707474088367
C         3.85817884542096    2.78825519324581    3.50358150379589
C         2.55702822795901    5.06598889567289    2.79892656754322
O         4.96063186148293    2.59956710622931    3.80592076806119
O         2.89748127041623    6.17325549680077    2.79254529174415
H         3.09764016633174    0.85006078754725    4.71803334258824
H         4.31282566684360   -1.26765181892090    5.06788077746340
H         3.78516562810788   -3.24153632375155    3.68313404454301
H         2.00797765800829   -3.10203383574608    1.97535682529558
H         0.78474657426447   -0.97952433698552    1.63680359606393
H         0.92888947667595    5.45760119673737    1.05910012634886
H        -0.35062253181167    7.52967398086920    0.66638220780823
H        -2.68227406786337    7.71346095529684    1.45527608792861
H        -3.74435689422084    5.80089413963457    2.59908887083460
H        -2.46094262620821    3.72086839516953    2.97826099889132
H         0.95702069208554    1.48541629789431    6.10232246929908
H        -0.52486907784983    2.16088899935438    5.41215772538452
H         0.03912570674088    2.71847395665433    7.00759578470493
H         3.29698509958262    3.18986359014233    6.48648992228583
H         2.19561952863540    4.27078099693141    7.37849703179393
H         3.21124007978292    4.90278347425422    6.05589506485333
H        -0.68938839928444    4.99396844850153    4.83767238304813
H         0.73280336707229    6.02591438913139    5.01752280277324
H        -0.00927323962861    5.28415198509123    6.45867208096674
H         0.99765923780947    3.48806858926508   -0.69680576484798
H         0.89333131923927    1.76001435488145   -0.33349936789455
H         2.01913689417372    2.33061093619996   -1.59100756825928
H         3.46908847941180    4.94676230209128   -0.13568624943805
H         4.28100525825325    3.67521460160494   -1.08405291078257
H         4.85263552502444    4.08853002981755    0.55340533055574
H         3.21263225398743    0.34809920531836    0.67831944020970
H         4.69436855901473    1.23111115959429    1.05935658808116
H         4.14155103845418    1.12067966630522   -0.63153787100336

