99
CSD_code = VESSOB | q = 0 | S = 0 | Stoichiometry = C50H40N4O2P2W | MND = 6
W        -0.00185691366888   -0.45658956318769   -0.00077999836332
P         1.50000996240602   -0.52689565575005   -1.91328623183307
N         0.44934968698722    2.35949211552695    0.44804054604717
N         0.90100439916601    1.17683156748477    0.82865586211845
C         2.90406604044840    0.35587576497875    1.89921582055444
C         3.86551531774931    0.46852304289935    2.88239864723976
C         3.81154115987190    1.50302025074989    3.80261897817119
C         2.79566647137657    2.44165066139104    3.71998438172871
C         1.83804559678136    2.34552605223679    2.73271151201929
C         1.87073949744268    1.28863195207842    1.81762845516964
C         2.96572566756031    1.76174309140603   -1.37403567070419
C         4.06789360922109    2.46310009961322   -0.92466613302090
C         5.25320006097636    1.79643106247289   -0.65857673977212
C         5.33246839470538    0.42640755221379   -0.84349042394083
C         4.23033160485517   -0.28156569554067   -1.28834369502998
C         3.04024097919130    0.38267641235593   -1.57047208120354
C         2.94487553360926   -2.07136808344570   -3.71958836699693
C         3.40056644310794   -3.25277525656063   -4.27139471472947
C         3.02120948899504   -4.46789496702257   -3.72116782268475
C         2.18505397726326   -4.49842087742923   -2.61836518293871
C         1.72749075762367   -3.31629290522752   -2.06100181878873
C         2.10837163302706   -2.09791139225430   -2.60552651512443
C        -0.30971353851798   -0.35700146267203   -3.94541433857900
C        -0.88262991952316    0.10254385460543   -5.11433827886913
C        -0.28413119428193    1.13830152005003   -5.81392564269936
C         0.89472154163224    1.69501449516535   -5.34972292775625
C         1.47910903743857    1.22938152716927   -4.18371497443736
C         0.87164575172234    0.20598440038687   -3.46772587832614
C        -1.08495806675859   -1.85305910133972   -0.88034215976012
O        -1.70010974384753   -2.69570878988075   -1.38820766630219
H         2.96210786689488   -0.43624059482835    1.16836270149093
H         4.66387878063398   -0.25764093667471    2.93003760798199
H         4.56038644263537    1.58021891350211    4.57714267089680
H         2.75036297188437    3.25408911739269    4.43071358351163
H         1.04303943712673    3.07243829553997    2.65850353445142
H         2.03743842387126    2.28539297271370   -1.56647610828909
H         3.99810032293605    3.52965140759898   -0.76993054693154
H         6.11155812851802    2.34408195851228   -0.29887861047492
H         6.25338059263477   -0.09614162267639   -0.62897745076467
H         4.28775967717964   -1.35483086342847   -1.41076914437202
H         3.23598132378432   -1.12046113669470   -4.14578327668244
H         4.05101184125924   -3.22888056495293   -5.13358654233635
H         3.37698888103570   -5.39043038528570   -4.15568286382552
H         1.88690738285296   -5.44424041750140   -2.19085690019424
H         1.07207636787574   -3.33262025895326   -1.20066608915835
H        -0.77089562051958   -1.16203881525662   -3.38866829980110
H        -1.79877690395913   -0.33994531473938   -5.47552424638404
H        -0.73506618532642    1.50840592886838   -6.72272160228574
H         1.36766967219920    2.49633711343223   -5.89921140269673
H         2.40808225985625    1.66225300432937   -3.83970823335281
P        -1.50117648829470   -0.52732251992779    1.91358792853134
N        -0.90326857264768    1.17749031487881   -0.83000653332923
C         1.07908053742311   -1.85531294418917    0.87812581512795
N        -0.45046463759603    2.35981047762013   -0.44969502589825
C        -3.04277238108409    0.38099938919526    1.57353065019763
C        -2.10703688600030   -2.09887780692433    2.60681671534263
C        -0.86971105577507    0.20609379534148    3.46656576025977
C        -1.87272467637035    1.29025438044092   -1.81926257777410
O         1.69214423518668   -2.70035925919963    1.38456265971594
C        -2.96900018545526    1.75951425988504    1.37280919683369
C        -4.23370102902216   -0.28413225470580    1.29710130023634
C        -2.93824348153197   -2.07358594639070    3.72489950625185
C        -1.73025854724013   -3.31665137650590    2.05810830930715
C         0.30993791227661   -0.36014274948686    3.94471798237194
C        -1.47272125991161    1.23347637550613    4.18059169911759
C        -2.90920413751148    0.36083266712075   -1.89897163002408
C        -1.83641675539024    2.34519502599540   -2.73643257587136
C        -4.07250621654333    2.45943248975234    0.92451390606429
H        -2.04024476554097    2.28388987113625    1.56096227313800
C        -5.33718331596064    0.42243900688678    0.85331853767263
H        -4.29079811934680   -1.35700747361621    1.42294166168376
C        -3.39277400834329   -3.25556686294048    4.27644521757224
H        -3.22625288545639   -1.12317833664512    4.15432877738486
C        -2.18651359368548   -4.49937746056898    2.61530754784567
H        -1.07911134372241   -3.33217858250824    1.19454937906954
C         0.88522817471092    0.09974117942064    5.11234357545212
H         0.76792702497542   -1.16805864700757    3.38948104248582
C        -0.88593011899230    1.69939154868520    5.34530578207133
H        -2.40033636286172    1.66902051641875    3.83628935761082
C        -3.87022180922284    0.47487823509550   -2.88245283591161
H        -2.97011454262815   -0.42962971366845   -1.16653003187935
C        -2.79375018072815    2.44278334495412   -3.72385899913727
H        -1.03883236862526    3.06944640552337   -2.66375938240149
C        -5.25852196012071    1.79186640325922    0.66382391681409
H        -4.00323125145082    3.52551051393112    0.76629144670905
H        -6.25868238506802   -0.10084885119804    0.64314055696014
C        -3.01750058145314   -4.47006548670806    3.72202511901591
H        -4.03915450071387   -3.23265800709961    5.14171098731072
H        -1.89133814627479   -5.44464544703662    2.18452316720565
C         0.29098776426091    1.13915247797846    5.81014095044410
H         1.79995790954391   -0.34537644127443    5.47393110206222
H        -1.35552792588339    2.50369329793580    5.89331500514419
C        -3.81282678612056    1.50747865611223   -3.80461398581622
H        -4.67116162624614   -0.24854653453268   -2.92868962956634
H        -2.74557673740196    3.25363866472562   -4.43620612712883
H        -6.11789746099532    2.33832833778621    0.30474141002486
H        -3.37230082405280   -5.39303717080113    4.15638866466619
H         0.74377995192612    1.50937593680028    6.71796762898911
H        -4.56148849897600    1.58577682728027   -4.57921092393691

