85
CSD_code = VESSAP | q = 0 | S = 0 | Stoichiometry = C22H54B2I2N2P2Pt | MND = 4
Pt        9.84734844798466   10.43962823468408    2.77565079518003
I         8.01459028552109   10.11604553472892    4.88658336978678
I        13.93053080414862   10.87363035723118    2.53029275709025
P         9.52338936366601    8.19306077154115    2.23910025597177
P        10.35758284874802   12.56376645854735    3.67925471473795
B        10.96310591110435   10.86474400213045    1.02904623840348
B        12.57146077697536   10.40126057546229    0.89241507595228
N        10.27063950642516   11.55987844649107    0.03624186528161
N        13.11313133672014    9.65082626941807   -0.15119423021123
C         8.83142830833193   11.73011317919685   -0.00186605955527
H         8.39153949097234   11.29054717298918    0.89735326730644
H         8.41093325840981   11.23508635670630   -0.88515259844920
H         8.54678350489291   12.78561960153678   -0.05851707339095
C        10.88406648718463   12.21004403714416   -1.10541568968504
H        10.51871658916702   11.78188007015371   -2.04614607979862
H        11.96526606449901   12.11023531763721   -1.06364472551978
H        10.63610644813510   13.27629393114472   -1.11196130480089
C        12.38378278408274    9.35038665729249   -1.36741790926118
H        12.40329844508643    8.27396103731072   -1.56632593423703
H        12.85312832201398    9.85253093256522   -2.22077147342981
H        11.35438707358650    9.67772795205516   -1.28660875624879
C        14.44817479257993    9.09462003753929   -0.25961211377761
H        14.98572542478657    9.55954239168925   -1.09249203715350
H        14.38748866944463    8.01914091270264   -0.45573189996714
H        15.02466268974394    9.24281153626505    0.64735622795078
C        10.11685325767588    7.60657922551776    0.54862353154201
H        11.04450117213149    8.17542110788969    0.42948642698670
C         9.14993646839865    8.06307828678024   -0.54022249270748
H         9.62648557834354    8.01841098691487   -1.51960040421306
H         8.82815186202633    9.08435345855867   -0.35704327310536
H         8.27399352693143    7.42064332644302   -0.57422049604337
C        10.45592525949723    6.13008629766858    0.34678644542560
H         9.60759678867201    5.48182346184989    0.53895848409012
H        11.28609079556670    5.80898827121301    0.96961522803160
H        10.75230391913309    5.98360420546173   -0.69276580695810
C        10.51948178664835    7.04664116670333    3.33050728520812
H        10.36380950813206    6.03458617685177    2.93974031357620
C        11.99872069213891    7.41156690586864    3.22179828551256
H        12.16410203744416    8.41603612972152    3.60541148125730
H        12.35564400845379    7.37698408875660    2.19457298570205
H        12.60087141304912    6.72509086496797    3.81575840103538
C        10.09817815355309    7.05398770045804    4.79575083765472
H        10.70274980610843    6.33586284359570    5.34887531113939
H         9.05378789744723    6.77892929816240    4.91961344396617
H        10.25154830083572    8.03139161761152    5.24273402108417
C         7.77396320271814    7.55807764301745    2.44769089464530
H         7.61877592028133    7.64266196511006    3.52832244282552
C         6.76802829302629    8.49899642846347    1.78506277472827
H         6.69895800855275    8.33652545626098    0.71310168330875
H         7.04685086940195    9.53775029921303    1.96008435017640
H         5.78041273742220    8.34563807222349    2.21628108970534
C         7.50128567263421    6.10882657671802    2.06388828286577
H         6.50829108423676    5.83605958652844    2.42034905884028
H         8.21498648839122    5.42840848550724    2.52258520892686
H         7.51116086968220    5.96592290136201    0.98591992930812
C        11.39305056275267   13.80496649418456    2.70513142829874
H        12.11157503145881   13.16123805323281    2.18515701912823
C        10.57330649730810   14.51563747069325    1.63231760941703
H        10.00540257096802   15.34312863541535    2.04920182754332
H         9.88341689762239   13.82460273741960    1.16272439320845
H        11.23477136619248   14.92356830260540    0.86782768509240
C        12.19672894464832   14.83215019113375    3.49922262859903
H        12.75338776297000   15.45313887534849    2.79713373924126
H        12.92017301483530   14.36470608241989    4.16060855473269
H        11.55497185081552   15.48498419629804    4.08205578254519
C        11.49081782092824   12.24137419742766    5.14747548937786
H        12.48891472922559   12.44363826317901    4.74535311909894
C        11.28053119151590   13.09704118232436    6.39127302239389
H        10.26663779893707   12.99624700107676    6.77200609027365
H        11.49514712637728   14.14585831221538    6.20725696045265
H        11.96297903688064   12.75262796888974    7.16775321108931
C        11.47021433071558   10.76496296223943    5.54290369785111
H        12.41061045773798   10.49236512679174    6.01945706495001
H        11.34287323742659   10.13868448637501    4.65252899814589
H        10.66004313980423   10.55884989763586    6.23748333738442
C         8.85328360837025   13.50426701371092    4.29873117963879
H         8.54212014785132   12.91854282129778    5.17063772871112
C         8.99465837409508   14.95385288659577    4.75130515259689
H         9.21078984391226   15.62149579931644    3.92180944287143
H         9.75470176907536   15.08047991484640    5.51407306519920
H         8.04254455288171   15.26683848245475    5.18066052236724
C         7.73661509919117   13.40493411898951    3.25799340015623
H         6.77886624891085   13.64265768192717    3.71783320222769
H         7.66997207592235   12.39372949745221    2.85850672421094
H         7.89758189782679   14.09361673683813    2.43227551644538

