62
CSD_code = VESWUL | q = 0 | S = 0 | Stoichiometry = C21H33Cl4N2PPd | MND = 4
Pd        0.13952659918855   -2.15173602020017    8.80183814323992
Cl       -1.96304641916736   -3.03391402519573    8.49411163104814
Cl        2.05802333889125   -0.92647386009368    9.13647221110265
Cl        4.12308713645956   -4.69013129444387    3.84701643791257
Cl        2.18234502856878   -6.00616679968800    5.95832050025078
N         0.19774018589080   -1.47536106464295    6.86931897922430
C        -0.42943212243181   -0.39867431780194    6.58142183526790
C        -1.29150681962541    0.22642597080538    7.63214033522987
C        -0.29715071637297    0.27224312913173    5.25422156933543
C         1.12804980122051    0.85531893376021    5.08724860737675
N         2.02686031770667   -0.22641791869467    4.76028980075469
C         1.58698497840853    1.57212383180440    6.36253547188685
C         1.13685678111212    1.83468029525866    3.90935481591465
C         1.96354459146357   -1.54501626055334    5.09179003940368
C         2.88440495276294   -2.38478063107367    4.44062757652661
C         2.96559381113797   -3.73514775579095    4.68965674409537
C         2.10862463352387   -4.31609310202144    5.62445891741969
C         1.20395104604457   -3.51786618348242    6.28730214565357
C         1.10499625264905   -2.13996917156492    6.04873620313166
P         0.05498528897549   -2.83589096599253   10.91779842989702
C         0.30693471044491   -4.66178938938532   10.79005889155866
C         0.95140448676900   -4.44109211934306    9.47426493903007
C         2.43479416187647   -4.45599833631007    9.52948194791465
C         1.33282364844143   -2.27079311548693   12.11271234785038
C         1.15113784961620   -2.77072396838481   13.54297585808145
C         2.38935269657786   -2.47166750357174   14.38098024210294
C        -1.56961894834829   -2.59591631455137   11.73805028916784
C        -1.89086128011245   -1.10184916682583   11.70805221181717
C        -3.31916203522442   -0.82601736253593   12.15714581185356
H        -1.69538289504257    1.18152356797904    7.30706078220073
H        -0.70513567078198    0.37588214689997    8.55414258897704
H        -2.12101404211368   -0.45312573542943    7.86379782190950
H        -0.46247973318166   -0.45349578475772    4.45304296179569
H        -1.03055348678146    1.07114750893445    5.15791394702531
H         2.76908740704288    0.01156356574674    4.12156684617616
H         0.85976087145605    2.32158773674624    6.66289622290948
H         2.53958293450118    2.06602199725553    6.18532860680463
H         1.72749075561113    0.86613955864659    7.17862858792372
H         0.49226658486221    2.68345257825192    4.11943553612291
H         0.78485936774291    1.34643707472834    3.00314824010458
H         2.14325323494027    2.20995921940478    3.73643201940712
H         3.55913816482061   -1.94976342045170    3.71860668096302
H         0.54004602393969   -3.96870264100384    7.02687572806723
H        -0.67540033839672   -5.13368528374214   10.71764722642559
H         0.91500563688738   -5.08124059704494   11.60104620091298
H         2.84058527376104   -3.55485074705626    9.05911194077813
H         2.74179051011795   -5.28177497118409    8.88250532819238
H         2.87855102142123   -4.60163412817074   10.52310182789420
H         1.33706267583323   -1.17722025803795   12.07998319008540
H         2.29619196992363   -2.59467278629855   11.70703451839092
H         0.96542139242099   -3.84819467296433   13.54537901966479
H         0.28726010556836   -2.28333017959423   13.99903438071386
H         2.24587886051234   -2.80662947607881   15.40571330732168
H         2.59106101524014   -1.40297332282632   14.39222123607858
H         3.26101874694802   -2.97822816528188   13.97244932769343
H        -1.55485747487461   -2.99737377698885   12.75410412846799
H        -2.30558353599535   -3.14182916224255   11.14220166549836
H        -1.75501246161050   -0.74834619909032   10.67419144891436
H        -1.18980241071020   -0.55585220954822   12.34564470514387
H        -3.52868831483135    0.24065638544672   12.13128063815529
H        -3.47692476138521   -1.18250298358691   13.17322473370949
H        -4.02212138429967   -1.33265035183100   11.50056567151290

