74
CSD_code = VESWOF | q = 0 | S = 0 | Stoichiometry = C29H33B9OPRh | MND = 8
Rh        4.59507730602413    1.11614041888626    2.80515394853572
P         2.48366847815384    1.58422072200405    3.60244301223284
C         4.41684764365313    1.18540289276077    0.34533470850563
C         5.45982206301328    0.12189323542594    0.74604794156333
C         4.75293225255257   -0.21099511017778    4.07422407482907
O         4.85985860963572   -1.05105101669662    4.85628900378665
C         5.98761008685977    3.08599273693148    3.40861239658418
C         6.66368055858662    2.84212336174855    4.67026007338113
C         6.19919409878002    3.46185229573961    5.83898511125075
C         6.82345977838389    3.26998344867817    7.05479180004536
C         7.94825012920591    2.46274404339550    7.15724164019656
C         8.43559047007187    1.86652965403733    5.99642763250197
C         7.81447318934932    2.04896940752270    4.78077138620261
C         8.64062166662463    2.24828890035426    8.46873466244255
C         2.23326171858563    1.22247706266372    5.37951213232822
C         3.31003343251886    1.46821133323263    6.22826386874194
C         3.20003108774999    1.23890909629191    7.58650576086972
C         2.01442719373677    0.75002479721787    8.11106494991073
C         0.94372999775384    0.49378436332983    7.27140923357670
C         1.04801302406686    0.73013492524508    5.91131645735259
C         1.11122134658012    0.65372667016795    2.82985864716215
C        -0.21428686843470    1.07879094905126    2.84580156250130
C        -1.19646672352016    0.30846393441234    2.24924022015158
C        -0.86893203976883   -0.88991107979104    1.63531570762384
C         0.44711863012479   -1.32202983246051    1.62047860807139
C         1.43017488678567   -0.55201837408253    2.21475410590897
C         1.87013573411633    3.30257046102117    3.51764954155949
C         2.07289813178911    4.18536701986898    4.57289586966799
C         1.70499099102799    5.51334764936551    4.45126059592285
C         1.14335856592662    5.97560779515641    3.27283221656896
C         0.95281709363278    5.10508180576490    2.21156814072202
C         1.32102191624965    3.77836191579456    2.32885537553232
B         6.59207004852582    0.68446356701164    1.82843720664875
B         6.19909115748817    2.50736911325098    2.03958313965523
B         4.65758771015576    2.64396074911931    1.06007749443677
B         7.45831631972314    1.96504939157010    0.95448189051976
B         6.21357429323962    3.22358782462645    0.43749379037962
B         5.08348733463678    2.40529470981123   -0.65582025889980
B         5.58107659851027    0.74845060458863   -0.85933066697407
B         7.00646833805649    0.46132562038210    0.11269382811404
B         6.82612689169320    2.02532588053889   -0.71725708822536
H         3.41198410596275    0.81772594274798    0.13763574481267
H         5.11492466188459   -0.91053613360064    0.78089689318983
H         5.29095945223855    3.92285145083347    3.49865130708156
H         5.33130805895845    4.10664045310242    5.78357179216405
H         6.43400710002959    3.75844554721008    7.93817716340288
H         9.32202458332183    1.25027433516586    6.05584463284533
H         8.21890612617874    1.58667055048387    3.89568131021127
H         8.07677588102522    2.69251225231198    9.28569352169770
H         9.63296396269384    2.69933996726302    8.45021069268267
H         8.76435031610801    1.18429366125126    8.66632830130614
H         4.24219933563799    1.83195966995272    5.81440084098765
H         4.04370488798035    1.43426122050965    8.23160932818225
H         1.92686486966314    0.56203490037136    9.17088121313542
H         0.02069104968209    0.10475237553440    7.67618723492381
H         0.20723079361314    0.51928001714846    5.26667625807701
H        -0.47491939298255    2.01478240953331    3.32029462668545
H        -2.22315189739854    0.64425419503236    2.26383729472962
H        -1.63924924821946   -1.48542720380837    1.16841766775757
H         0.70409055109501   -2.25701137297313    1.14439292411108
H         2.46510798021957   -0.87935433813839    2.21414155674647
H         2.51262389784647    3.82743761782789    5.49306302370880
H         1.85989284603770    6.19077652399452    5.27834230767802
H         0.85827460064570    7.01281573158900    3.17914276707074
H         0.52215054686428    5.46365452696035    1.28823697814745
H         1.17769266997659    3.10124521133710    1.49766469061925
H         7.14485149786628   -0.07145250155865    2.55164060828944
H         3.75312027703879    3.38379347741522    1.25473538613973
H         8.57568469326697    2.25142539282240    1.19327120987254
H         6.47631761031820    4.36842273919370    0.35164410894403
H         4.40094996503022    2.91710601184736   -1.46589530464829
H         5.22923350655866    0.05422218350958   -1.74025715695477
H         7.72376502936888   -0.43277361463484   -0.14998503783366
H         7.49953653965620    2.31865385599689   -1.63659360765326

