47
CSD_code = VESXAS | q = 0 | S = 0 | Stoichiometry = C20H19N2O2PS2W | MND = 7
W         0.35219532413861    2.54948666380131    5.91634277452399
P         0.00679558460821    2.04980674758079    8.27824369648204
S        -1.42340033047072    0.67494334937092    5.66210661168751
S         2.71772401172709    3.42425606399245    5.39052022819909
O        -1.81490882218612    4.57415348683910    4.91258953509491
O         0.08228116741897    5.45565462750384    7.07868679760406
C         0.09512018153460    4.39801243644598    6.55979079382853
C        -0.98011259211882    3.90771348240733    5.39711879796721
N         0.89722620559843    2.54950121747872    3.83889119030469
C         0.99326064026957    2.14754587856258    1.50778926876606
C         2.92050412532550    3.01030161724546    2.64177262377489
C         2.31619408441122    2.59256096830613    1.47710924040476
C         2.17427359720577    2.97424907979717    3.82289776069571
C         0.32061182280808    2.14377466226606    2.71286110997766
C         0.52626864111616    0.39091680815022    8.85557398864382
N         1.14864321052779    0.62031074274815    5.73882261187382
C         0.07017291180926   -0.15371195880485    5.48587927944505
C         2.36819878633844    0.08778498440074    5.66729000940967
C         1.47021168654278   -2.04196014931517    5.06191852578910
C         2.57671426441760   -1.23488564263588    5.33873349188079
C         0.20695273524371   -1.50331975991098    5.13552884036225
C        -2.29650635653902    3.45662919257145    8.83556769362887
C        -1.72720291540679    2.18524054414519    8.80323634632482
C         0.88882503946413    3.10209032466954    9.48549237642457
C        -3.85718046518633    1.23913142952756    9.38872386816548
C        -4.41302989766750    2.50552142956712    9.43836466404483
C        -2.52059175644954    1.07527999050709    9.06923420585879
C        -3.63028687022022    3.61470479548882    9.15938383821281
H         0.49894086343131    1.81645623318371    0.60939900312855
H         3.93923875001462    3.36109985000216    2.67116125009035
H         2.86100379042826    2.60795988534843    0.54508327826544
H        -0.70919831027691    1.81428826680982    2.79337136243026
H         1.60859402922370    0.31762131309159    8.73849342037263
H         0.05473567030863   -0.38825699764215    8.25698487219996
H         0.26419297240168    0.26234965711142    9.90630121831313
H         3.19598620210680    0.75573507285810    5.88377948869426
H         1.60803053671012   -3.07908882014584    4.79565670241958
H         3.57784250608790   -1.63096214061418    5.29479398282744
H        -0.68079732054181   -2.08049016836965    4.93426261752015
H        -1.69287621959017    4.32220147264711    8.60088978665186
H         0.62130827979330    4.14494151280440    9.32828734562971
H         1.95976132698481    2.99300545364745    9.31105605571737
H         0.64324440556878    2.80650874532525   10.50607976677817
H        -4.46802586717959    0.37185864445408    9.59244743960467
H        -5.45734983163721    2.62857053123958    9.68399250986507
H        -2.10493585093420    0.08049568991714    9.01726600822876
H        -4.06324994715876    4.60351278559919    9.18492372187845

