41
CSD_code = VESZUO | q = 0 | S = 0 | Stoichiometry = C10H22N6NiS2 | MND = 6
Ni        1.53394437842126    0.25799008018025    3.44264032769548
S         2.33475121041564   -2.89950375895852    0.47540469643968
S        -2.11999438480383   -2.32770336449235    3.36537035951298
N         2.12403828216017   -1.30700049537254    2.71519879315176
N        -0.18503223158874   -0.37830087146656    3.53355744321304
N         2.15706707188081   -0.56699945625516    5.68372865186571
N         0.88496500485567    1.91621644231218    4.52957736195240
N         3.41444153760838    1.08832591174328    3.11484398900813
N         1.03987444998422    1.36247221829196    1.36438467898404
C         2.13267315932293   -1.96756498426512    1.73701556358246
C        -0.94249902220575   -1.27843916344414    3.42622785706746
C         1.17187649365887   -1.51473567684205    6.20189097002998
C         2.58093708758082    0.39569372796271    6.69527430606652
C         1.57525690268814    1.53465060727948    6.88282061195082
C         1.51901901828284    2.50822935967897    5.70681367426516
C         4.09971765224187    1.02163294073114    1.81967788986750
C         3.36894186159536    1.81392462220993    0.73855238190934
C         2.03247226496051    1.19076559969684    0.33271318931537
C        -0.14521934930475    1.60205683169104    1.01893544379377
H         0.23322548815520   -1.00752780917753    6.41441952749641
H         0.97914089549850   -2.26828717275534    5.44229683252167
H         1.52182903154851   -2.00671057352479    7.12058382787893
H         2.96756602491779   -1.12273188030959    5.40951524530312
H         3.54249018715475    0.82548914425976    6.39691592187056
H         2.72582094813435   -0.09857439145768    7.67137992915279
H         1.85513888239823    2.09428552492452    7.77744764771500
H         0.58208110420957    1.11651854897449    7.04718582493857
H         2.53487167284253    2.82772842361933    5.45124407392735
H         0.96568852450182    3.40419988176638    6.03025648238175
H         0.76572143568074    2.62694285594953    3.80898314743141
H        -0.05115552086240    1.60359014254451    4.79011353952983
H         3.98218033150042    0.59493818865460    3.80149525226076
H         3.36564326601202    2.06490768689362    3.40085620465300
H         4.16451144994693   -0.02638759465599    1.51944857681728
H         5.12321331389221    1.41779731795643    1.91152774852688
H         4.00932351258670    1.85350685585550   -0.14368039248708
H         3.20222769174989    2.83963510718880    1.07969893697606
H         2.17531710622823    0.11442231118603    0.18908672225100
H         1.69139348537595    1.61856004658492   -0.62173309173892
H        -0.45807909742604    1.68682093834461   -0.02514040574195
H        -0.91148112179612    1.70836587649733    1.77217025866392

