59
CSD_code = VESZAU | q = 1 | S = 0 | Stoichiometry = C28H22N6O2Rh(1+) | MND = 6
Rh        2.79629300873214    1.29198777626116    3.81005533144658
O         6.05351509197194    0.73887425404853    1.46952123357757
O        -0.38660612336513    3.54397654861953    2.71890609524664
N         4.38007083657534    0.09941853109578    4.55718478939454
N         4.01257921322503    1.41571810458050    2.30145298828475
N         1.63326896438832    2.43285422926551    2.75355358962916
N         1.16982458312465    1.45290184356046    5.15772814512935
C         4.55672689652750   -0.55260379975461    5.70442659905043
C         5.69179398834712   -1.28909857030770    5.99315294871896
C         6.70359592325070   -1.35909596503467    5.04570812138049
C         6.52976890865244   -0.68361538565594    3.85220076409185
C         5.36068497451597    0.03626838757243    3.63743147475197
C         5.18701036453339    0.77531443725225    2.32808053008494
C         3.48932892648904    2.20514516093472    1.27022268488720
C         4.13403067075660    2.46806941591788    0.06729582736807
C         3.51443032596126    3.26747713603824   -0.87970929637174
C         2.26112548980177    3.80697737813304   -0.63971427109141
C         1.59981027615088    3.55805428070691    0.55211852063913
C         2.20199712972422    2.75825003998367    1.51622644656671
C         0.44994105968740    2.82435040221697    3.24004460593504
C         0.22079444329354    2.23937280753954    4.61700872725198
C        -0.96509414323809    2.52916685512694    5.28094205550738
C        -1.18973295928483    1.99664903679687    6.53669714036349
C        -0.21047413486059    1.18334611864880    7.08976321475817
C         0.94430946630807    0.94291105066496    6.36668437439239
N         3.64873928094433    2.93944655851749    4.64719151803454
C         3.87476686140336    2.95549135483939    5.96527729698776
C         4.44194136536415    4.03253373007728    6.61879443667187
C         4.79861819116675    5.15440833421178    5.88526220142768
C         4.56684052825028    5.13909112395185    4.52056001356114
C         3.99300985281231    4.01946282278844    3.94153271658273
N         1.94538855208899   -0.36205583587960    2.98424242458532
C         1.67796462539048   -1.41414221521717    3.76545572631285
C         1.11469256273201   -2.58210516648392    3.28857785248887
C         0.80680075805688   -2.68026128887748    1.93970692244538
C         1.08026216432085   -1.59126064912481    1.12999237656284
C         1.64677595238290   -0.45646503830058    1.68622664580278
H         3.75801290428074   -0.48845702896488    6.43339231219164
H         5.77767506677667   -1.79579345934846    6.94083163445540
H         7.60155986913066   -1.92526138682875    5.23729132254851
H         7.26882525943414   -0.68674507517397    3.06567041494604
H         5.10858352039593    2.04523639177768   -0.11229536738416
H         4.01933999777293    3.46767303196610   -1.81152316377500
H         1.78875760117409    4.42809617786771   -1.38427549796415
H         0.62495441131687    3.97400385341423    0.74561191252910
H        -1.67647773647815    3.16893544096207    4.78146217727255
H        -2.10174160397882    2.20610167364200    7.07331292075150
H        -0.33636453004207    0.74141847824471    8.06498551906305
H         1.71818077183509    0.31060619398238    6.78475368796258
H         3.59222829020037    2.07402078185734    6.52690302411051
H         4.59986880374730    3.99008469916417    7.68450002279415
H         5.24300392163798    6.01187254633486    6.36536046346588
H         4.82427580252240    5.98236103455193    3.90054500329663
H         3.80979219384277    4.00381924850940    2.87599693464810
H         1.92261673918234   -1.32542946921803    4.81640658808084
H         0.92229433778666   -3.39935461373447    3.96500087314116
H         0.36751115153260   -3.57861376015087    1.53571325323362
H         0.86115222029087   -1.61040852702806    0.07480456912244
H         1.86225713145368    0.39601996345731    1.05694862305223

