47
CSD_code = VETCOM | q = 0 | S = 0 | Stoichiometry = C19H24I2IrN | MND = 8
Ir        5.73208250216576    5.05553122912756   13.90924922247276
I         7.40318057051902    6.86785424330146   15.00961521440981
I         4.14917603049090    6.83593324684572   12.63867359300811
N         7.52290033881350    5.26200110732301   11.42321182411697
C         4.27139870541562    3.39176587354991   13.98341760467232
C         3.98548420194312    4.23645413688548   15.12979183803846
C         5.11409384102176    4.24674466454391   15.95356417798330
C         6.12892833930208    3.40870334521361   15.33975167448886
C         5.56318779836304    2.81844491054467   14.17191271309984
C         3.25735845916152    2.96849109110814   12.97452361053268
C         2.65387479532029    4.83370134143391   15.44245968464832
C         5.21514686804499    4.85305799418208   17.31360558409590
C         7.40337829126087    3.00896628335896   16.00395247075642
C         6.16801664356569    1.72151688897831   13.35620761871066
C         6.84545275675359    5.14869785760058   12.37107910121802
C         8.28363104227540    5.59422854051390   10.35149474923269
C         8.49525455627357    6.95254170374701   10.07311884680195
C         9.27724799722223    7.26241541155326    8.97104536106373
C         9.82440508390265    6.26674165880083    8.18017640554615
C         9.59982558680641    4.93210452817324    8.47428955773850
C         8.82558772005726    4.57181461719300    9.56441227072673
C         7.89163067641073    8.00395691495017   10.94205031479603
C         8.56076937288609    3.14036190428152    9.91584253462676
H         9.45738517278597    8.29954968375431    8.73225340472800
H        10.43014441790145    6.53165311287592    7.32690831821521
H        10.02904428179644    4.16143206016548    7.85164095401321
H         2.62606797881678    3.80328949325170   12.67380626317098
H         3.73018364277820    2.56015685412853   12.08326309588144
H         2.61349383566761    2.19806098489157   13.40455912243672
H         2.10407576852629    5.08252991029819   14.53697941021372
H         2.75634328999043    5.74010326609601   16.03703449951781
H         2.06015946687318    4.11761706077769   16.01529701630760
H         6.24048360111997    5.12605581397238   17.55520080195826
H         4.87094655183006    4.13155415059233   18.05827126141102
H         4.59711243164664    5.74559913784579   17.39658398909525
H         8.10653319005081    2.58260465041371   15.29106835065604
H         7.88107886541487    3.85998293819231   16.48735817541691
H         7.19601596522447    2.26007070999589   16.77154205889383
H         7.25525457412499    1.77074634295808   13.36617658017292
H         5.86904620214001    0.75630084655419   13.77050408126134
H         5.83216183451926    1.76275292799135   12.32170657265983
H         8.15107038923893    8.99559232671021   10.58427528083297
H         6.80607145322677    7.91157009294224   10.95903589770502
H         8.24009359345066    7.90087336910346   11.96926658738093
H         9.00686937783895    2.47499922439206    9.18183993069948
H         7.48805673977286    2.95115296059787    9.95567973454044
H         8.97649519728748    2.90812258828923   10.89670264004396

