109
CSD_code = VETCAY | q = 0 | S = 0 | Stoichiometry = C54H51P2ReSi | MND = 9
Re        1.58862376476766    4.15100204806269    4.86300845956570
P         1.98378965734848    2.40538419323391    3.06888131252579
P         1.44086252732719    2.42812255510200    6.67729803972882
Si        1.33595617817047    7.20917814963463    4.80052401785850
C         0.74069724328731    1.11398313795635    2.72060025932814
C        -0.15128064623081    0.72288573761358    3.70736831125412
C        -1.08186944888700   -0.27115125150853    3.46357437647471
C        -1.12700017699674   -0.87992425073558    2.22196636188188
C        -0.24101742918918   -0.49155484775921    1.22774139681893
C         0.69019142837254    0.49923612859137    1.47055289214656
C         2.03667447983898    3.21038690381068    1.42863220185314
C         3.20120178500494    3.42589753405836    0.70458679319436
C         3.15281594793770    4.13104514303521   -0.48612297336305
C         1.95087329446126    4.62716596268102   -0.95894085673435
C         0.78511963399500    4.41264395085031   -0.23970614820253
C         0.82720367905585    3.71096193863321    0.94800075285746
C         3.52703150527066    1.43504403980064    3.05649402007516
C         4.71888506889382    2.13139322472909    3.25035104636271
C         5.92944066122159    1.46647063103440    3.22354005980794
C         5.96248117206808    0.09763537756080    3.01267545046641
C         4.77975130612334   -0.60143534628920    2.84497710273353
C         3.56414213438726    0.05856241582280    2.87168646490750
C         2.39967422971260    0.90830577787871    6.37844171770593
C         1.81525930380982   -0.32664325583888    6.12153823435361
C         2.61182533664006   -1.42945594581636    5.86937179726355
C         3.99103314386245   -1.31426587856466    5.87662287459746
C         4.57923538686914   -0.08224120306033    6.11347512118898
C         3.78889842038089    1.02504395754269    6.34611692688018
C         2.10530356090552    2.99403073907740    8.29077749914672
C         1.65317837105468    4.22914476696376    8.74869025544151
C         2.07279693877064    4.72174452279672    9.96896846375842
C         2.93987471957832    3.97917806322966   10.75329022578431
C         3.37475476244663    2.74077722326317   10.31351795810935
C         2.95978619513244    2.24411291744822    9.09013659670504
C        -0.13161069022058    1.76273589987259    7.34414681814735
C        -0.08614036148522    0.79962538268032    8.35043230283455
C        -1.25712191450416    0.30187139348520    8.88589201315864
C        -2.48378189292454    0.76468715705332    8.43329327458101
C        -2.53359413163227    1.73490926732639    7.44875247292354
C        -1.36138819356413    2.23543310248359    6.90790346961624
C         2.51352905587135    7.89127439476609    3.46828662807191
C         2.48868373744421    7.38371635565462    2.16989335108930
C         3.32689746126719    7.88348237148502    1.19181294018572
C         4.20909682204768    8.90870427312828    1.49146110603175
C         4.24395439383520    9.42837362556128    2.77426284168770
C         3.40488595403325    8.92361764933466    3.75175544665734
C        -0.41308156536449    7.85561426364406    4.39947404255908
C        -1.54935748171460    7.05369948416831    4.44506740514751
C        -2.80264038315904    7.57440778126076    4.17697350762359
C        -2.94368117915707    8.91382844804950    3.85703726411934
C        -1.82308464102463    9.72618287837112    3.80184382380190
C        -0.57237263631892    9.20108401976860    4.06849673061986
C         1.81618403819667    7.79857021014711    6.54720401916445
C         0.86878480608086    8.35640923587964    7.40358102444918
C         1.20289817902326    8.72162257318058    8.69547083779895
C         2.49408185922574    8.53473957669993    9.15878146679607
C         3.44963002645520    7.98339158260909    8.32047247349707
C         3.11208230386961    7.61861620011473    7.03134525593367
H         0.13495374988858    3.43342053451896    4.56172363993095
H         2.71754660508688    4.88371124455894    3.88536097763094
H         2.33345404318807    4.95545400872738    6.09350275090196
H         0.83612894390352    4.83345215469904    3.55201903735134
H         0.43040782656376    4.80933214707705    5.86304324795810
H         3.08397988549053    3.51633699766863    5.18716999114840
H        -0.12601836921418    1.21083533106049    4.67423059683199
H        -1.77225890412471   -0.56438994141071    4.24214791765631
H        -1.85358881345424   -1.65454452339307    2.02441653296816
H        -0.27724161245541   -0.96535384581474    0.25719074995841
H         1.38153969387457    0.79986261192120    0.69431115927115
H         4.14743135257357    3.04382195968332    1.06062316794234
H         4.06377246736211    4.29416428048922   -1.04426111899068
H         1.91996496923614    5.18087636075362   -1.88601497400723
H        -0.15604020452418    4.79902725062941   -0.60334653942951
H        -0.08012834782267    3.54984635817491    1.51742938156109
H         4.69147179325348    3.19956554673697    3.42858917755217
H         6.84819710049726    2.01716668394235    3.36763391296283
H         6.90824368721841   -0.42404448318073    2.98757689274753
H         4.79983643232054   -1.67095871894800    2.69191344674085
H         2.64965202543436   -0.50430550218870    2.75089429089200
H         0.73973972844487   -0.43800235823236    6.13203478811957
H         2.14847706209572   -2.38587258141219    5.67230154939290
H         4.60835793600901   -2.18160297716789    5.69433683606828
H         5.65517475277346    0.01585918006576    6.11197125974177
H         4.24652232719361    1.99241448865144    6.51743752660050
H         0.97934142976075    4.81451666112626    8.13589733663906
H         1.72527089800265    5.68878802202062   10.30177735735060
H         3.27506115172610    4.36245649941363   11.70600210184845
H         4.04496429362629    2.15307363724352   10.92498064509062
H         3.31535663573190    1.27576651443997    8.76498021497062
H         0.86892579264318    0.44191952577270    8.71088533665072
H        -1.21468520304697   -0.44871117612230    9.66218611993368
H        -3.39763388109653    0.37152048692037    8.85434632741272
H        -3.48600703699253    2.10660316067577    7.09922537336086
H        -1.40668828633056    2.99896576325916    6.14295077229644
H         1.81095975628669    6.57734869785380    1.92765174848100
H         3.29394643293965    7.46903401538058    0.19391545490360
H         4.86737675416808    9.30022537765368    0.72900992325493
H         4.92910195243698   10.22945269938950    3.01389240985519
H         3.43920461769947    9.33585511475441    4.75021055002417
H        -1.44156160717723    6.00730707163492    4.69003116527696
H        -3.67331329528816    6.93500304523314    4.21773296277813
H        -3.92184865667240    9.32365753458714    3.64954502053476
H        -1.92614342278966   10.77226574909245    3.55035433782866
H         0.29768917127029    9.84030467096304    4.02219671233863
H        -0.14209482324545    8.50375389906908    7.05089382287186
H         0.45265440827582    9.15070451704264    9.34493070180128
H         2.75542735043537    8.81595497983841   10.16923120282187
H         4.45863684575983    7.83319058640091    8.67774875706746
H         3.85803488929077    7.17640855128538    6.38680991610142

