36
CSD_code = VETGAE | q = 0 | S = 0 | Stoichiometry = C17H13NO3STi | MND = 13
Ti       -0.00037177018942    0.85604786258096   15.09924195768681
S         0.00015509718965    3.60700619734391   11.51051244871040
O         0.00144064860094    1.65883101076720   13.25793597408704
O         0.00101812657556    1.23952160557489   17.01701095577925
O         0.00004139414615    2.63034961317706   18.77274993610338
N         0.00050802820484    2.95085509915703   15.31194983884361
C        -1.46937843074553   -1.04426049286459   15.23346287703805
H        -1.20060307427967   -2.08064720312353   15.38559010560344
C        -1.97660773378918   -0.18530620532288   16.22105800754304
H        -2.05015067383646   -0.40355323655797   17.27660561666260
C         0.00078644634656    2.90700616025731   13.00914339025747
C         0.00028458724380    3.48693634372506   16.52685051456229
C        -0.00003565750300    4.85945865851399   16.72468629063161
H        -0.00007954317451    5.24659218593942   17.73107313377601
C         0.00033162053410    3.73599705693135   14.23351856915760
C        -2.40797641714128    1.00011983031292   15.59363159650042
H        -2.91132692426818    1.82675810238558   16.08079934483086
C        -2.23951481010419    0.84019070307247   14.20049676474080
H        -2.59743953503227    1.51799740031820   13.43546185013396
C        -0.00002604114062    5.12380413453173   14.33905319493969
H        -0.00007269592902    5.71895765544601   13.43918827678962
C         0.00070639412476    2.38433731086409   17.58675270231847
C        -0.00008703016488    5.68579558196470   15.60551836718778
H        -0.00018941119619    6.75906562752609   15.72268103940716
C        -1.63850212548439   -0.41350739933049   13.97469230346340
H        -1.47277219750980   -0.86564086909866   13.00560179762724
C         1.46909938271552   -1.04395935878169   15.23344107191315
H         1.20058958414793   -2.08046585246537   15.38555614224702
C         1.97610726955171   -0.18490665598418   16.22105288715728
H         2.04979294987951   -0.40321774768908   17.27659498448380
C         2.40732859076281    1.00057507502576   15.59362615203612
H         2.91072871535758    1.82719500496143   16.08079317363429
C         2.23881673713634    0.84067265222460   14.20048060419809
H         2.59676903865300    1.51846809934786   13.43544093615968
C         1.63808973723418   -0.41316570755186   13.97467536405952
H         1.47253972308373   -0.86540824317904   13.00557182972886

