33
CSD_code = VETGIK | q = 0 | S = 0 | Stoichiometry = C13H16ClNOPt | MND = 5
Pt        1.72725899167501    3.72995931720379    2.44017184577480
C         1.28975534169568    0.62325129016776    1.07695316960416
C         0.31839799598178    1.08461536973236    2.14743961898025
C         0.00004676721148    2.55537263716370    2.11623602840067
C         0.22996121068504    3.33193595284281    0.97963896997712
C         0.87990191762214    2.68351553126277   -0.21533536603228
C         1.96101100725811    1.73680756433834    0.31567402234616
C         2.89484047573127    2.51960111409479    1.26791072462729
C         3.89490058610144    3.35639286721641    0.47634068493176
O         1.50019950777913   -0.54600335830242    0.87283458014661
Cl        3.50879141175662    4.48908831487690    3.57649026947003
N         0.62328917621639    5.19380791988359    3.69609359831079
C         0.48423558975409    4.91479036868064    4.98766368087490
C         0.43961794450623    5.89332527715620    5.96537712130605
C         0.55033418877793    7.22067533870705    5.58272338763828
C         0.69244266132718    7.51281847240090    4.23525960494625
C         0.72639563827304    6.46721469848382    3.32933628859369
H         0.74220556170590    0.80171745182936    3.11954493527715
H        -0.60233202164505    0.50062680020309    2.04051416906087
H        -0.77732362241915    2.86300719717384    2.81697339382792
H        -0.39746655740985    4.20100582209347    0.78733764960868
H         0.13163048593901    2.13563257514781   -0.79837591771118
H         1.32610825984062    3.43274839985767   -0.87071346974502
H         2.54133839275659    1.29507041035541   -0.50149800046375
H         3.45025455388490    1.80822017907831    1.89626423846089
H         4.43422598791758    2.72638041907411   -0.23353512844538
H         4.62174799757521    3.80786865375100    1.14678693851803
H         3.40261563201404    4.15143866539835   -0.08446307086870
H         0.40989184799405    3.86487859472554    5.24639381969533
H         0.33241215038213    5.61895579232066    7.00284534138281
H         0.53234459882961    8.01002559741039    6.31911163092314
H         0.78646409380121    8.53093593765914    3.89226997185072
H         0.84230222648743    6.65181882802388    2.26733526874186

