38
CSD_code = VETJUA | q = 0 | S = 0 | Stoichiometry = C10H18Cl3IrN4OS | MND = 6
C        14.74325780887028    5.69370573696100    2.26763491783482
H        15.41869949760403    4.88192189003800    2.52867736224637
H        14.43896461613528    6.20732427779375    3.18154580348229
H        15.26323668464694    6.40233416746177    1.62083635842247
N        12.15287606820748    3.71731967977799    0.80543202688883
C        13.29815056353619    3.86163973519960    1.43865975452854
H        13.91866945249606    3.05247518587879    1.76694130598278
C         9.02663060651333    1.46905008812527   -4.28245708488303
H         8.08796618404888    1.21414880921304   -3.79563071358134
H         9.33924350613421    0.63522712877882   -4.91271367006245
H         8.87595349964656    2.34822140013512   -4.91151751242808
Cl       13.23237623108462    0.84322824083534    0.52598183314804
Ir       11.15720487560267    1.92407354396323    0.69000283713124
N        10.96817519172705    2.00606632854695   -1.32963003835531
N        10.02113072618934    1.73422622081252   -3.28189031714550
N        13.59615257341320    5.15561691575785    1.59480186916126
C         9.83849644433316    1.72847404179838   -1.95665925999888
H         8.90368170836702    1.52956959338818   -1.46841148122771
C        12.58035674006879    5.87376502945062    1.03341602846964
H        12.57049462907154    6.94392850101377    1.02902077002045
C        11.91585598842436    2.19618064861081   -2.28947812665733
H        12.93490777494924    2.41317535166528   -2.03953936229940
C        11.68939234979178    4.96866651687082    0.54269511982516
H        10.75273814606766    5.12505082735082    0.04826275292928
S        11.26206043375877    1.66162470197406    2.96169301870479
Cl       10.03378039488308   -0.09096368839499    0.71892668514594
O        11.99879274051539    2.70127455224513    3.67136560129423
C         9.64000478254051    1.51475068329173    3.75923239768976
H         9.79105855706812    1.34450488342708    4.81861332389106
H         9.11823050219307    0.69234484089092    3.28334849120289
H         9.10264098507359    2.44184287045183    3.59034948444695
C        11.33312428132557    2.02794576043873   -3.50966958582654
H        11.74283512207334    2.08862609578950   -4.49656411885342
Cl        9.13130069276094    3.07090871646043    0.92672667693663
C        11.95769952516956    0.07139628538138    3.49020369038123
H        11.97752294896421    0.05148984177444    4.57339589910492
H        12.96113149073508   -0.00153808376561    3.08383897402264
H        11.33460567600940   -0.71319731938890    3.07735828842644

