37
CSD_code = VETKIQ | q = 1 | S = 0 | Stoichiometry = C12H19MoO2S3(1+) | MND = 8
C        10.96047947024225    3.35622557813219    8.03401818396297
H        11.28820838862538    3.84671526665125    8.95973374100933
H        10.86846325349377    2.27652749278976    8.18502695267758
C        11.87282382780346    3.64705372572682    6.89339297311275
C        12.28984131664330    4.96693239509781    6.74340097180042
H        13.00453172843570    5.16592219138372    5.95001406841214
H        12.41880888315511    5.59348143131422    7.62282183777951
C        12.47090899730623    2.51063825468848    6.12937502373008
H        11.78150758881195    1.67453274247961    6.02337625540486
H        13.34931874477010    2.15172808320465    6.67082872737294
H        12.79879520425196    2.83368073509603    5.14226190446555
C         7.46494696324017    5.82475861547046    4.34781844825757
H         7.58139881068737    4.92160933324101    3.74463710498688
H         6.45363128866726    6.21325272520297    4.21635177783358
C         8.50061675449256    6.86179899024778    3.96952043928382
H         8.29639813032077    7.83439262570614    4.41744026932854
H         8.53057487569134    6.97565671776528    2.88463896463607
C        10.79973558697492    7.88091312014534    5.29984073635535
H        11.85655401404950    7.66796171503493    5.47005909390649
H        10.71737181439659    8.68544219949435    4.56757736925202
C        10.11492318647973    8.25676880713829    6.59425542650126
H         9.11403483079678    8.65429603565584    6.43110634848519
H        10.70849965408734    9.01445196650537    7.10793475957033
C         8.18979763025407    6.91755633123036    8.19225862411263
H         8.06589621951880    6.12194784527462    8.92990858501555
H         8.01219636418725    7.87878002286438    8.67855959978755
C         7.23389948534071    6.72199815451120    7.03602898554908
H         7.22868353684715    7.57015590794231    6.35225442706229
H         6.22517815711229    6.58346717688267    7.42731812076023
C         9.39643685574760    3.80310168331269    7.94899257409022
C         9.84671568717015    3.27915946253216    5.14964671277106
O         8.57422502052119    3.52433152562492    8.72955510568847
O         9.68429026023234    2.42707299619595    4.41782571588932
S         7.60606649275489    5.20561779744953    6.05904822014960
S        10.18829064055336    6.35786216258375    4.48869186884190
S         9.96151245334118    6.84845026950642    7.76765409034746
Mo       10.04133788299296    4.78545791591710    6.35272599180787

