55
CSD_code = VETLIR | q = 0 | S = 0 | Stoichiometry = C25H24ClN3OPt | MND = 4
Pt        4.38768754699487    7.06942976237943    6.68830490265855
Cl        3.62760535694234    8.91032379982934    5.73779596162986
N         5.00639323602888    5.50510334593128    7.58911414990963
C         5.74750420291785    4.59576246129919    6.93547580827119
C         6.19430559659686    3.45609075437523    7.62045283711828
H         6.78970825392172    2.72236839833141    7.10122920929369
C         5.87651323117288    3.27420660835163    8.94810346820810
H         6.21367249311546    2.40360213156604    9.48752654795621
C         5.10003550537335    4.23448271320969    9.62238320607024
C         4.71457276001611    4.14836794864039   11.00599998800485
C         3.95610646881553    5.13760010530217   11.57110045346351
H         3.65723324553286    5.08636088125775   12.60613027130814
C         3.52639990177106    6.26961319763536   10.82722721270012
C         2.74518461928066    7.30871451725388   11.36169985755749
H         2.43640857163876    7.26941181009597   12.39624338242900
C         2.38516208558598    8.36265158582986   10.55337765939601
H         1.78588045902159    9.17360963482473   10.93614430431569
C         2.79999777836966    8.38580429342106    9.21870011993347
H         2.53324119382829    9.20189749103077    8.56083741163311
N         3.53081869660464    7.42688496220743    8.69091412739229
C         3.89176563607182    6.38397917672555    9.47014774833322
C         4.68214757556322    5.35228580593396    8.88181229132670
C         5.97021555783371    4.97854148791216    5.55163135793275
C         5.37505586296531    6.21499037053451    5.17435134844716
C         5.54856553005846    6.64610402389953    3.86554392025078
H         5.10983779849373    7.58120457619777    3.54832384807387
C         6.27797131431372    5.89263204739005    2.95794793521417
H         6.40052663914116    6.24687810481255    1.94449511052817
C         6.85207886210124    4.68813781286006    3.33766731548657
H         7.41761672882602    4.10891411591628    2.62228534544187
C         6.70076619403384    4.22931592429682    4.63079652521854
H         7.14826537922317    3.29113667872684    4.92613538407293
O         5.16366054637583    3.04484156699242   11.64243408194519
C         4.87809750758568    2.88217171606987   13.01710288272080
H         3.79545369600652    2.83749571464480   13.18737543489202
H         5.29155548919843    3.72401887373905   13.58560351405689
C         5.50625865414392    1.55862511653569   13.45896027036491
H         5.12533791691648    0.78077234585193   12.79331725229251
H         6.59921294726959    1.61356906377301   13.32120544655078
N         5.12970911307895    1.23877283706393   14.82079686709413
C         5.14029937066615   -0.18969842465137   15.08876969538218
H         6.16654632321632   -0.59928948320183   15.05423427598280
H         4.54866950891165   -0.68850056033930   14.31727886798354
C         4.52902430124704   -0.46686475285495   16.45879655180640
H         3.49794835702139   -0.11061466068048   16.46039029523988
H         4.52370103677139   -1.54228705468347   16.64288104505593
C         5.31728027253682    0.26012085673783   17.54180891203214
H         6.33304207157774   -0.14023274816319   17.58712107597279
H         4.85150418891254    0.11024503662945   18.51708302358834
C         5.36806369890551    1.74417723428058   17.19938162560912
H         4.35829983465875    2.15658610405093   17.22227187087852
H         5.97961812042593    2.28588845308610   17.92280751436842
C         5.94502328735888    1.93696627706272   15.80080538915072
H         5.95555981321738    3.00043176953866   15.55458994440399
H         6.98908966183579    1.57189819053899   15.77928515304393

