39
CSD_code = VETPIT | q = 0 | S = 0 | Stoichiometry = C13H19N3NiO3 | MND = 4
Ni       -0.41189486055260    0.39155002090297    5.22128096449290
O         1.04460012836953    0.49866697683167    4.07709268448207
O         0.59967585763633    1.43383189338650   10.03873635835302
O         1.96683658850216    0.18452559099481    6.40714912018781
N        -1.67211797096526    0.47598991741236    3.72189411790877
N        -1.69998725469792    0.47822958989437    6.62712717736877
N         0.77010844380040    0.40790958708266    6.60732478682320
C         2.47584788043516    0.74401316587862    2.20944355577326
C         1.09962947487677    0.69811778460664    2.83088389766070
C        -0.01198811758844    0.88994581698478    2.02469083092193
C        -1.33258199948998    0.79458852043220    2.48185323237452
C        -2.38847469193221    1.05589239082439    1.43522466305570
C        -3.10112586326696    0.29258794779496    3.95660403611757
C        -3.41753981935343   -0.48571675018571    5.23067548643536
C        -3.12548146436697    0.31770880701556    6.49222615385227
C        -2.01795333740658    1.10392458464135    8.96769413843111
C        -1.17720714048960    0.79653020202066    7.77509656974250
C         0.26737287879806    0.75868873228287    7.80266889877414
C         1.08950328390689    1.03397272458505    8.99633606595306
C         2.57310572643678    0.82768411134748    8.88378987167567
H         2.64495591653873    1.71518273051622    1.74899420123996
H         2.56442798656614   -0.02051676426196    1.44068595834020
H         3.22214154214654    0.57280839028569    2.98038498457012
H         0.15058328045841    1.11142270774668    0.98254906436114
H        -3.13588333949694    1.75841201932070    1.79918767000392
H        -2.89544813627798    0.13159462718760    1.15778068290361
H        -1.93283396611037    1.46939162687966    0.54080226320050
H        -3.60333684282907    1.26986178951179    4.00342687432588
H        -3.53676627450283   -0.27317962052841    3.12504219677793
H        -2.81455999785905   -1.39875461987664    5.24895464550581
H        -4.47268579759102   -0.76425335968571    5.21619695842485
H        -3.52875981778295   -0.21750605849466    7.36091839727265
H        -3.61748266146497    1.29849317703641    6.43590595515949
H        -1.40280922437120    1.49151979002347    9.77277187773050
H        -2.51401737526328    0.19625253128582    9.31439854524070
H        -2.78727342730943    1.82955687447036    8.70738293388411
H         2.98509018943129    1.44836838528608    8.09016050552042
H         2.79553244157206   -0.20679210972027    8.63002649585281
H         3.03309776149339    1.08549626828196    9.83533717930064

