56
CSD_code = VETTUM | q = 0 | S = 0 | Stoichiometry = C24H27ClN2NiO | MND = 4
Ni        1.84147070507483    6.18960154630115   10.45737979498485
Cl        3.20965971921719    7.71190052929358   10.70411905506833
N         2.04397394220137    6.15734511106358    8.56987624403500
N         0.57527334322812    4.77758967783598   10.21794998168408
O         1.59896094093717    6.17049482017693   12.26726479560218
C         2.81004544712655    6.88872877431001    7.78545013345338
H         3.43090310306749    7.63087251273575    8.27282853170319
C         2.83901390495783    6.73500259426111    6.39303955440424
H         3.49024009361191    7.36861180242645    5.81247623605142
C         2.04689981170370    5.79114446484864    5.79715211145736
H         2.04553103893190    5.64729124797346    4.72661952133599
C         0.36071670382737    3.99039198844811    6.09742415187668
H         0.33284169227320    3.81764733906203    5.03262604029968
C        -0.41708327868848    3.25580800335112    6.95228911421973
H        -1.07065929689041    2.49020537309672    6.56154916703794
C        -0.39028972427294    3.47015127246116    8.33341058756596
H        -1.02619848484482    2.85990161248589    8.95498033176628
C         0.43203821037453    4.44049796022776    8.87956125933802
C         1.24699231872164    5.21195978603773    8.00178342791135
C         1.21461758221937    4.99020822376788    6.60468579633602
C        -0.01990365248339    4.44589815126355   12.53612178296674
C        -0.82367561210155    3.69338228631220   13.42641417815399
H        -1.45889175424954    2.93674298340345   12.99360939143895
C        -0.79518927862940    3.91755827468874   14.77077226068024
C         0.06921493959393    4.93157598148765   15.24609020657305
H         0.08421604018689    5.10409887707334   16.30850840991292
C         0.87707634768637    5.69655652414569   14.45033987885678
C         0.85397105831809    5.46850592046807   13.03085262715103
C        -0.09957599631607    4.16845561079082   11.16296701641599
H        -0.79101663349647    3.37374995373226   10.88693516737730
C        -1.63596187029860    3.14455274273494   15.77392539060418
C         1.79495586700295    6.77397484114476   15.01168760107989
C        -2.50269773191228    2.07398207197682   15.10549221548930
H        -1.88812935794988    1.34311077841689   14.58508615848551
H        -3.20126798909880    2.52010833264812   14.40158671220175
H        -3.08008639727699    1.54858237839832   15.86340671440978
C        -0.70909047628124    2.44789432753205   16.77962118986710
H        -0.02784003066941    1.77682493404784   16.26067728183985
H        -1.29550931525059    1.86578532676984   17.48736539277471
H        -0.11758664257795    3.16596610463681   17.34035816905819
C        -2.56394526116579    4.12113041411293   16.50938241119910
H        -3.18856790483090    3.58185194241057   17.21835690719444
H        -3.21001350429861    4.63271729276843   15.79906792465361
H        -1.99949148833909    4.87099550210569   17.05638056719382
C         1.69811596356014    6.88854343250738   16.53695185804769
H         0.69221254136485    7.16001728575697   16.85093098745081
H         2.37463237126082    7.66974380204463   16.87672907495335
H         1.99095859018147    5.96036535571855   17.02361047734050
C         1.41230789046541    8.13299944558873   14.40914498250146
H         0.36622424441750    8.35702873914699   14.61132163224400
H         1.57110171147433    8.13750968500600   13.33548573819091
H         2.02677873966691    8.91676403598491   14.84559219349616
C         3.24919065818300    6.43756514955358   14.65314099941575
H         3.91770348413080    7.17473268162168   15.09130284704475
H         3.39345154301252    6.44752326097633   13.57746306706461
H         3.51658113394434    5.45375093285569   15.03525475054355

