87
CSD_code = VETXUN | q = 1 | S = 0 | Stoichiometry = C36H44FeN5O(1+) | MND = 5
Fe        1.69006614327309    0.23746283173125    1.31443217031238
N         1.78243968895275   -1.53928940940020    0.36169467601566
N         0.03635032293329   -0.41980242980113    2.26674554978597
N         1.14940808343815    2.12109023335144    1.79435344214435
N         2.89046449455330    1.00300147761924   -0.11577909028957
N         2.76091184945309   -0.01747740873083    2.44318155368773
O         3.54778146438157   -0.19920181551528    3.27243289153032
C         3.58993039566568   -1.06491849478748   -1.20982221511913
H         4.25773642055599   -1.49305153110589   -1.93940218656482
C         0.09014639424655   -2.77317436618867    1.61713373826470
H        -0.35897831460852   -3.74029063451599    1.77376120269964
C        -0.62484246303759    1.63895773550878    3.40102830023262
H        -1.29196863837116    2.06697486095967    4.13128898290580
C         2.77456989930574    3.37124173962947    0.46823058922494
H         3.17539012062614    4.34990982740825    0.26072741949439
C         2.70762920121219   -1.91570367297330   -0.57722378695792
C         1.11489308878290   -2.68824106380121    0.69788532080766
C        -0.40516495613413   -1.71481519367955    2.34985311567713
C        -0.72372298269346    0.28359653875797    3.16497604511781
C         0.24832914653552    2.49184745480150    2.75876180943098
C         1.78230091286089    3.27840302901141    1.42166424057032
C         3.29234936951508    2.30749794405636   -0.24076546305182
C         3.66868100466318    0.29524826604104   -0.99497967367915
C         2.61747120275747   -3.32696098086719   -0.84729247343105
C         1.61744727942474   -3.80996892565277   -0.05182251930657
C        -1.47550418172860   -1.83010479697098    3.30588994129614
C        -1.67238351267516   -0.57947940213469    3.81905303793457
C         0.30619488369480    3.91089771318443    2.99461336424809
C         1.26345675307763    4.40409070928148    2.15406592897750
C         4.33266170944788    2.43009076061504   -1.22844167625032
C         4.57109229488719    1.16953107405986   -1.69780685424677
C         3.49626773822830   -4.07292345620449   -1.79064258967690
H         3.64786570622409   -3.48901076215600   -2.70065921428481
H         3.01154735341342   -5.00781960013366   -2.07410320427364
C         4.85214826905698   -4.38825453963524   -1.15181050344324
H         5.48277295701252   -4.92037196860997   -1.85875901967602
H         4.72024146029192   -5.01210362313293   -0.27160151965538
H         5.36112980756250   -3.47631367511752   -0.84847959260533
C         1.13417208060742   -5.21230052646794    0.08450845922255
H         1.39869010648545   -5.77468305001526   -0.81169549082928
H         0.04613728100099   -5.22477418848125    0.17422375453789
C         1.75743410193138   -5.89708674251823    1.30456018641403
H         1.38001162879138   -6.91188725021094    1.39592108314089
H         1.52297932325144   -5.35449279638905    2.21744281887484
H         2.83872563339830   -5.94028109683484    1.20345510079161
C        -2.17035259544560   -3.09928122898466    3.65970009512828
H        -2.34792701580016   -3.69061351862393    2.75924812270116
H        -3.14077521396331   -2.86915537477125    4.10103923341576
C        -1.35071179869507   -3.92058397827779    4.65945553375741
H        -1.86659359842776   -4.84831249837478    4.89142186887679
H        -1.21174014681880   -3.36436403219035    5.58280397108094
H        -0.36954051769905   -4.15901621230704    4.25549589010341
C        -2.63332644570085   -0.14829643336772    4.87234977851342
H        -3.44659285786296   -0.87193449219268    4.93788878045500
H        -3.06917945835583    0.81698477096274    4.60709888989099
C        -1.94844987688101   -0.04373159564392    6.23835517960079
H        -2.66213460622651    0.28460274187381    6.98900285188043
H        -1.12419906332608    0.66502480099199    6.20759332883881
H        -1.55355414620348   -1.01063157696073    6.53917862142339
C        -0.51109680316652    4.64204340417957    4.00256905958966
H        -1.53734150063881    4.26953969466467    3.99282937565621
H        -0.54087607267965    5.70131732248134    3.74499422326717
C         0.07747879276338    4.48710499220248    5.40816472802691
H        -0.53846345799567    5.01536351579633    6.13075763394932
H         1.08217174194299    4.90005710639525    5.44577311163932
H         0.13009368158587    3.43935430238069    5.69484612666680
C         1.74406298824838    5.80703301711072    2.01451390433926
H         0.97784952099257    6.49003036759850    2.38307500005223
H         1.91605397679731    6.03924065781874    0.96163982634981
C         3.03516071617538    6.03228923592656    2.80711359512218
H         3.37653714909757    7.05603747269378    2.68052034970489
H         3.82050151331434    5.35902310700841    2.47145316660826
H         2.86547553502395    5.85489627449937    3.86588626148749
C         5.01279075633107    3.70288165096154   -1.59751500718169
H         4.28242109500078    4.51222873365591   -1.65704805484321
H         5.46952367986634    3.59630545520273   -2.58213615374078
C         6.09939968481520    4.06633643223794   -0.58113735102233
H         6.57219163755434    5.00400873378600   -0.86018008274768
H         6.86227917032354    3.29285964002065   -0.54913643084771
H         5.67981453907394    4.17104854420953    0.41671958101572
C         5.57766899127936    0.72769477924330   -2.70291933198765
H         5.86551854050543    1.57675860597174   -3.32387722834551
H         5.14322313858224   -0.02992179367194   -3.35813924096090
C         6.82771066950676    0.16150161435956   -2.02258443938593
H         7.54261467914541   -0.16848488629308   -2.77135999983414
H         6.57556005006841   -0.68296876578423   -1.38540927986655
H         7.30119240563535    0.92177061922428   -1.40684313837867

