73
CSD_code = VEVBIK | q = -1 | S = 0 | Stoichiometry = C40H22MnN2O8(1-) | MND = 6
C         2.30511500572168    4.01307726035918    4.39335730043875
C         1.04760703375560    4.04780487928168    5.05454324603690
H         0.95606834402139    4.71028837000349    5.90382503881799
C         0.00755223349208    3.28548555265955    4.62852610672211
H        -0.94820889454344    3.33067456769896    5.13298048466162
C         0.15185597829667    2.40254969788919    3.52978128632341
C        -0.91905394388716    1.58642224249592    3.12633761991670
H        -1.85205680291103    1.65548112008481    3.67028079693839
C        -0.79222170946356    0.71843061636263    2.07481638845919
H        -1.62098339905370    0.09336540298468    1.77224620111746
C         0.42618055896766    0.64290243712541    1.39475568073223
H         0.53289817515645   -0.04612544316579    0.56842775040208
C         1.48635297048999    1.43021639637165    1.76546453668799
H         2.41112056935081    1.33551251413933    1.21971686629025
C         1.39139788164432    2.34095511783193    2.83665598346669
C         2.47303473286540    3.19254507829578    3.24237157820705
C         3.69453738009308    3.24012268733281    2.52001393566424
H         3.80017395003012    2.59829466636271    1.65353612657353
C         5.87027426651463    4.01416147360594    2.07060377920819
C         6.75915922017977    5.02811727022360    2.48346323135023
C         7.99532009219623    5.21186321655416    1.75812318846872
C         8.92767126626390    6.20622689618466    2.06946123788942
H         8.70249319766087    6.87115457270608    2.88921279869084
C        10.09116631475645    6.32057023837237    1.34278743056122
H        10.80894742568471    7.09037405681599    1.58578876639238
C        10.34608524434357    5.44339471873043    0.29310354198178
H        11.26039191924820    5.53471144940660   -0.27524436453517
C         9.43926148669522    4.45353711893472   -0.02942615007710
H         9.62266179174175    3.76461104664602   -0.83923046026212
C         8.25910550444763    4.33005017122210    0.69990671650725
C         6.18750549727836    3.13548023639490    0.98424502431409
C         2.87174896542038    8.55925463837979    2.34566082733941
H         2.67685071389335    7.99896199136831    1.44262629169461
C         2.46789769081640    9.84272347587350    2.48820912756215
H         1.93613735027422   10.34482077473834    1.69063571325946
C         2.72234803781208   10.56305817610267    3.68596391109021
C         2.27820578845165   11.88763938135139    3.82207846012581
H         1.74629087835414   12.34020205040471    2.99534960306361
C         2.50552225129191   12.59769589875747    4.97231379247341
H         2.15972512385170   13.61758639635615    5.06916588088428
C         3.18814567922818   11.98567903366878    6.02382641502596
H         3.36723945757655   12.53661362425500    6.93669518385167
C         3.63345608981706   10.69101463699196    5.91360073797140
H         4.15054111329718   10.26164120246161    6.75631958097529
C         3.42536645004891    9.93346909333142    4.74568883484714
C         3.87164797915360    8.56897827161329    4.59535856776286
C         3.56714264162237    7.86564492850391    3.38651124909735
C         4.62791351158562    7.95358128580988    5.61324534367223
H         4.90742019821813    8.56136222325302    6.46401488415777
C         5.79776991186867    6.21296884036084    6.69560864188267
C         6.20945736087369    6.97579698840843    7.83524870303920
C         7.28956049375808    5.01376263362703    8.71167276755097
C         8.03943430062987    4.45764755191717    9.74725270063885
H         8.32374616981589    5.08574053803075   10.57719198701370
C         8.40001136932820    3.12731452100176    9.69293465446162
H         8.98062006014288    2.69893754153596   10.49739269779564
C         8.02201790343746    2.33542571931801    8.61262999985241
H         8.31061548060673    1.29488404897233    8.58242215718202
C         7.28258518245732    2.87904783694629    7.58660363658071
H         6.97314111475823    2.29376031608274    6.73445374189052
C         6.90715904050460    4.22382870971516    7.62269610392913
C         6.12688963701371    4.84795374064202    6.56590579299019
Mn        4.75919267778662    5.40030668034742    4.29707881382886
N         5.04288556145449    6.70303510306304    5.62396299724952
N         4.70543779545145    4.01350579182366    2.81592996532898
O         5.52383144846981    2.21672300911029    0.53828602350633
O         7.40350572015983    3.34513473235208    0.35176989159792
O         3.28736481878265    4.69605904967860    4.88385630836394
O         6.43031439274050    5.75143954173923    3.48517076592573
O         5.99234046670094    8.15019492675706    8.08706020483983
O         6.95403957628808    6.31533903787043    8.80232869556476
O         3.89954118965751    6.65055939676717    3.15526163773851
O         5.75542511555683    4.17765103079701    5.55368503844354

