61
CSD_code = VEVCUW | q = 1 | S = 0 | Stoichiometry = C16H38ClN2P2PdS(1+) | MND = 4
Pd        6.00825584071427    4.07524760168896    4.11305600947137
Cl        5.36742861049092    3.76260679460199    6.24218564830088
S         6.31705745690562    4.38721275999324    1.81667806760729
P         5.45947468732022    6.27976312062977    4.42903325354203
P         6.60638261219526    1.85802330569736    4.09920589409325
N         6.33639081642132    7.25164038191537    3.35752105012984
N         7.16806503508060    1.16837944148897    2.65946609094158
H         8.15413031241019    0.93298462626048    2.67800141445746
C         5.82678195118337    7.06873440805739    6.06411408416744
H         5.21231603079732    6.55313161588156    6.80814052377747
C         3.68568843251538    6.60002671852895    4.02226415060270
H         3.56057379329769    7.66498578173768    3.79143267437321
C         8.07193001297169    1.53930744225694    5.18801872886987
H         8.59674200463348    0.66164859109056    4.78730977132619
C         5.17643576675079    0.78859201866009    4.59194781069749
H         5.04937626454581    0.94758556234400    5.66850344760112
C         7.55451987381958    6.68858774832176    2.81248300475067
H         7.99713808451506    6.03863239028858    3.58600601500190
H         8.25933880138019    7.49883040531836    2.59473921171830
C         7.34804850585692    5.87513180790388    1.53568244736863
H         8.30343794193082    5.54263584730527    1.13484276368838
H         6.82994424423390    6.47128254673324    0.78275650559253
C         6.77261445618137    1.70738576764756    1.37624045861355
H         5.68117757728125    1.77824351186257    1.34479685717657
H         7.08715966890682    1.00626280195125    0.59816024080927
C         7.36791224708815    3.08759790290907    1.07849086936322
H         7.36742661628802    3.27829565575150    0.00565726218208
H         8.38247197684971    3.17299429972489    1.47156718790009
C         5.50910787782969    8.55774821649808    6.04169488183302
H         5.78246004539058    9.00288686289923    6.99576764075821
H         4.45046503309259    8.74159635795776    5.87566123767220
H         6.07807535237924    9.05506771543499    5.25886257375055
C         7.29921839464266    6.81133373394523    6.37803545797045
H         7.93870284565934    7.37274877078357    5.69885393014505
H         7.52326650103442    5.74345552298897    6.29052363589149
H         7.52825020318219    7.12008819397308    7.39500010851202
C         2.80403382725436    6.19851866868236    5.20080361336200
H         1.75535851195772    6.24740373188013    4.91493283232943
H         2.95113146576725    6.85409833064002    6.05503243291048
H         3.02766193803319    5.17546161706381    5.50624158711205
C         3.34807704938709    5.74787684989493    2.79847324096978
H         3.53206863260139    4.68623532940341    3.02462278293218
H         3.94748355527182    6.03008995578146    1.93196270131477
H         2.29896262434348    5.85961250602230    2.53328688013617
C         8.94936363778234    2.78763792208384    5.04077879045617
H         8.38332206174907    3.67513695360419    5.36646519055727
H         9.26822845760363    2.92914852700369    4.00439674350394
H         9.84126536789156    2.71023744419123    5.65859011233575
C         7.71429357246147    1.28404808292858    6.64563259790103
H         8.62587874953955    1.18333269281582    7.23139940183096
H         7.14184418090304    0.36632437593746    6.75410810728062
H         7.13521121509267    2.10895056521813    7.05369427102201
C         5.42788724308426   -0.68281813303763    4.29916048655210
H         4.58564582047042   -1.27790879692231    4.64440525855271
H         6.32472377163653   -1.03421630366830    4.80472293619564
H         5.54968911134654   -0.84632595643849    3.23081957427995
C         3.93793947584192    1.33091691896453    3.87496769136406
H         3.97628696113576    1.10606310398275    2.80951786373825
H         3.86687086371799    2.42305581265175    4.01210937129080
H         3.03485357862575    0.88197802282113    4.28184378192905
H         5.80695245070162    7.79216554745762    2.68383083949459

