64
CSD_code = VEVCEH | q = 0 | S = 0 | Stoichiometry = C29H28O5PRe | MND = 6
C        17.14498275332034   -9.12152082191927    9.41630268558049
C        15.46348027425078  -11.33003448091777    9.38283187646345
C        17.38820253620009  -11.04924435513231   11.44148467541695
C        13.60814466516046  -11.50010843191027   14.24920126015082
H        13.17701194613794  -12.26915472565091   13.61311578547503
H        12.81458774119242  -10.94687720063701   14.74605883185859
H        14.22769159000403  -11.97265694895645   15.00952002575088
C        14.45996572878596  -10.56412677955982   13.41604646919444
C        14.97614667982643   -9.43697422357250   14.06525566770109
H        14.71634837769035   -9.29718080723927   15.10334990800769
C        15.78612399563691   -8.47021102452989   13.46682621572644
C        16.19364809964699   -7.28811582951567   14.32402755822655
H        16.74022317291861   -6.56591796881080   13.72183628071236
H        16.83099263908140   -7.62883325847896   15.13789006487256
H        15.31373303854146   -6.81427943092209   14.75423667751016
C        13.10521366246277   -8.75683957426952    8.68686946211276
C        11.72566656186880   -8.62292708885476    8.57932619182706
H        11.13059755490629   -8.37567244189240    9.44823225713444
C        11.10480264691188   -8.82109619721165    7.36094608404646
H        10.03084040629309   -8.71994014100145    7.28795628420695
C        11.83817264899657   -9.14986447539809    6.22608199961777
C        13.21768011126562   -9.27676327965769    6.34020133865656
H        13.80475864969054   -9.53426614573229    5.47075100371006
C        13.84546404564813   -9.08459215295964    7.55506371924448
H        14.92047095139418   -9.19440940028688    7.64197809772213
C        11.14530956994881   -9.38361911659063    4.91962024531900
H        11.85172036351227   -9.35697890895281    4.09415786711701
H        10.37489893820035   -8.63361335683545    4.75144786464217
H        10.66314250442278  -10.36139630905440    4.92475926449447
C        14.38746643244391   -6.68804138754893   10.07179688423099
C        15.67445913231270   -6.19259221373410   10.24541499211361
H        16.48232606183413   -6.86926773552791   10.48649508763988
C        15.91735966369894   -4.83727564257345   10.12786377212456
H        16.92066816844425   -4.46029290025833   10.26649782624544
C        14.88937522917267   -3.94947450219517    9.83076611587500
C        13.60571325232422   -4.45384113615962    9.65371752100652
H        12.79433014317835   -3.77874444948599    9.42003373616790
C        13.35327746726580   -5.80645576466991    9.77001461876529
H        12.34960721605275   -6.18210914826964    9.62564545669365
C        15.16980943875063   -2.48339537951799    9.71171176908051
H        14.28489439705922   -1.94012981509713    9.39028714078059
H        15.96939655538551   -2.30766128163262    8.99389400514213
H        15.49329590344268   -2.08222480489508   10.67194559814884
C        12.77788594063273   -8.52643436150881   11.52002967847943
C        11.96916476048984   -9.65730266955780   11.60626373555530
H        12.06157536728850  -10.43534340885012   10.85917166373686
C        11.06905852904056   -9.78900290082191   12.64493410278873
H        10.44240605141636  -10.66808332964300   12.70038782020824
C        10.97140848963080   -8.81264233079639   13.63005667867218
C        11.79775658200680   -7.69704560272725   13.54829094122034
H        11.73953308285078   -6.93651406320006   14.31460410951630
C        12.69668682412190   -7.55257865412578   12.50936264153035
H        13.34117265853713   -6.68464635290847   12.46581318106806
C         9.99914105549790   -8.94990017827685   14.76133242979773
H         9.57730938566315   -9.95138853181171   14.79501942796429
H         9.18257308819191   -8.23740947849040   14.64231426095728
H        10.48488567056578   -8.73956906174088   15.71291434049459
O        17.85918072357999   -8.61242565773249    8.67123650767783
O        15.11588542888721  -12.13997636558649    8.64753476663284
O        18.21183261711083  -11.65795380248719   11.94652245298278
O        14.62071885315723  -10.87732664458541   12.21138428920913
O        16.21917669082384   -8.47186470406156   12.28535242510577
P        14.04285208875755   -8.47082409730227   10.22296755241113
Re       15.94669519623834   -9.97174676584060   10.68664680768785

