65
CSD_code = VEVCOQ | q = 1 | S = 0 | Stoichiometry = C17H42N3P2Pd(1+) | MND = 4
Pd        1.77540912021478    6.31042653470003    3.07871469043661
P         3.97754119512393    6.87775667058949    3.22233769405026
P        -0.44909775433760    5.79677195820356    2.94142464383103
N         4.45166843650222    7.17669339574906    4.81344728892719
H         4.75759065969785    8.12482616755278    5.00137772148820
N        -1.19294700679671    6.77121601629293    4.09323056082979
H        -2.19344954757575    6.66335177854268    4.20842912508325
N         1.35951739549452    7.30669778245780    5.19653752901454
H         0.93973522295007    6.38586693607389    5.37355536908627
C         4.22287611959707    8.51761444883691    2.39755281671791
H         5.15304284218902    8.96757623589414    2.76540979004973
C         5.33645300028566    5.74479274918794    2.65670118987305
H         5.16522773696229    5.51443092573212    1.60079337130644
C        -1.36556079867158    6.00463471376848    1.32696131157802
H        -1.05826997385487    5.17364842408853    0.68481961359020
C        -0.86139609681754    4.11400203023263    3.59720360545313
H        -1.89667143098953    4.11390910768711    3.95766402689948
C         3.63774012865074    6.64195714886867    5.88913832097759
H         4.25730865558226    6.56136773828508    6.78685090053708
H         3.31870243254657    5.63274768103848    5.59703443323122
C         2.40327785998870    7.49452222450636    6.20337573921186
H         2.03155616000076    7.24105079401671    7.20623137878469
H         2.69494097518336    8.55015822601575    6.21416795548296
C        -0.71247726436248    8.14929273625933    4.18625387466101
H        -1.54120511009637    8.84197074553452    4.33745781261152
H        -0.18622681239042    8.43388902179374    3.26384178478571
C         0.27780143870175    8.28072037323699    5.34591118070174
H        -0.24620295052442    8.13601437367759    6.30138814279799
H         0.69876859508298    9.28962122114280    5.33376102843221
C         3.02099797699080    9.37532364035386    2.79359705058243
H         3.04861286651202   10.33750127658219    2.28612509561693
H         2.99578392838521    9.55852404785198    3.86738153900737
H         2.09518066710716    8.85406161382560    2.49897074167164
C         4.27363410229585    8.37209302849374    0.88116366630375
H         4.41722338712991    9.34650473292807    0.41806396809259
H         3.33209880866049    7.95994914361204    0.51520641946502
H         5.08865539794115    7.72564294435000    0.56479051039366
C         6.71260963829941    6.37148455859017    2.83670531349251
H         7.48246003153807    5.64251960276809    2.59277825513208
H         6.85346807315373    6.68046848438093    3.87018694082035
H         6.84979576832468    7.23441251641933    2.18973970368146
C         5.20145787979012    4.46149186039610    3.47522340566260
H         5.83997549463327    3.67904332852260    3.07229570124700
H         4.16827852036862    4.10243924094975    3.46524915405510
H         5.49541972462549    4.64498440189496    4.50666916396226
C        -0.89766800759694    7.31431600437535    0.69043330708009
H        -1.17352089548156    7.34964962504419   -0.36103371257471
H         0.19336683587963    7.40849527274261    0.76304895747249
H        -1.35732586516474    8.16930587451538    1.18416490553817
C        -2.87765167915069    5.96331040671256    1.50787922184731
H        -3.36647007544178    6.02182767938390    0.53772370787077
H        -3.22453453244876    6.80715390736174    2.10266473836457
H        -3.19467646462560    5.04013623688152    1.98966970324958
C        -0.67772596199778    3.03640906878639    2.53487148722471
H        -0.81723505967929    2.05210610935348    2.97808168760719
H         0.32783311583823    3.08107721276337    2.11864253950897
H        -1.39831567900563    3.14228817824175    1.72757027140752
C         0.08815862679178    3.87347161135875    4.77292537665041
H         0.01046383264992    2.84643827310915    5.12417462793738
H        -0.15652613637151    4.52881882058568    5.60886384422054
H         1.12942170076579    4.04629162478850    4.45464775785842
C         2.16155387629224    5.22917890552287    1.35788605538224
H         2.91543281455673    5.72441725576756    0.74433246556010
H         1.26526348167297    5.07564911437397    0.75681148208412
H         2.54985057841432    4.25898623642891    1.68632204610202

