64
CSD_code = VEVCIK | q = 1 | S = 0 | Stoichiometry = C17H41N2P2PdS(1+) | MND = 4
Pd       10.68309017547908    7.62133620739625   10.57744919551945
S        10.13666578193036    7.19425752683367   12.94421525965083
P        10.01994964199430    9.81928432235601   10.71104487656198
P        11.10343691992175    5.37917101198191   10.33066640980899
N         9.48504057072608   10.40298332058858   12.20622610835166
H         8.49323837050284   10.61043020355279   12.24035640242360
N        10.13168054577725    4.47209954343430   11.37712355903039
H        10.61278533182770    3.98183240074901   12.12235848213630
C         8.44683883317921   10.00501250320728    9.74428694285543
H         7.93810764895331   10.91280920530404   10.09286319587163
C        11.21167652783864   11.14539927973760   10.19418384226470
H        11.45253431490133   10.97243405298758    9.14097722348428
C        10.76932120377112    4.54214205563168    8.70494836823082
H        11.52269373005351    4.90135555421716    7.99689373611926
C        12.81778521876873    4.93244772165442   10.86457216529103
H        12.81352486226823    3.90054409929932   11.23656738395212
C         9.96644170584072    9.86985802266358   13.46147624938694
H         9.77723469623383   10.60852950131095   14.24666524946393
H        11.04863676472200    9.72280830680300   13.38578158671305
C         9.31385959637255    8.54295144423942   13.85567837472971
H         8.24825524732550    8.54110670638310   13.62185250721856
H         9.45880639585013    8.34329805188669   14.91706299636648
C         8.86360341495192    5.03474980749150   11.79799317108408
H         8.13327492020116    4.22633220064664   11.91986927574214
H         8.51478578391554    5.70276115223658   10.99686826325308
C         8.94045476255778    5.82098400520730   13.10430516144158
H         9.28332150208359    5.18317325239585   13.92074543954497
H         7.96916525653084    6.24238619833518   13.35681804139798
C         7.61288504466157    8.76450411228405   10.07543943376971
H         6.68462999422446    8.75825603286851    9.50782330151986
H         7.35857256697889    8.72029296349173   11.13585706748068
H         8.18934412409974    7.86204342148225    9.80546836746224
C         8.66788064572310   10.09447912758558    8.24008507201522
H         7.71482702532949   10.25134437723961    7.73827699038817
H         9.09733618975641    9.16724126860887    7.86323011374563
H         9.32374237698782   10.92173277918315    7.97999742238068
C        10.63742087940783   12.54359610661384   10.36857514053887
H        11.38919085448129   13.28538384266003   10.10815052995371
H        10.34073820648665   12.70689017609538   11.40207030853078
H         9.77198656251941   12.69947344140662    9.72860184189578
C        12.47663807671519   10.93470030076505   11.02714004437554
H        13.31081813531446   11.49617660104073   10.61331632161314
H        12.74997871283518    9.87219342576917   11.04535208341617
H        12.31595804277653   11.27209204582991   12.04936468823850
C         9.38928537762969    4.99798378561762    8.23252507501928
H         9.22663887889932    4.71771307858704    7.19447235499016
H         9.29917608768861    6.08781617502953    8.31318723468826
H         8.61129094746712    4.53152144129815    8.83393730609361
C        10.85591800051048    3.02682708428970    8.82147442811097
H        10.63242602001750    2.57010710019607    7.85984695423161
H        10.13599448986031    2.66062368621002    9.54941373504420
H        11.84948867781384    2.70698203647156    9.12621969003532
C        13.17798488471550    5.89997885048467   11.99439308621929
H        14.21733925794940    5.77438971811290   12.29049279711784
H        12.55435663069513    5.73535525805200   12.87339102274181
H        13.03910771529103    6.94027475176433   11.65570465757053
C        13.81299850851383    5.06371428705220    9.71681746156253
H        14.82250610479293    4.89000505817356   10.08444470385512
H        13.77474532364297    6.06507575871623    9.29213684237575
H        13.61568159694361    4.34100580667020    8.92957338457839
C        11.63149106790534    8.00532888893725    8.78979109626023
H        11.23853015898608    8.88228482129198    8.27995096225885
H        11.60923903590681    7.16533370443766    8.09710288105217
H        12.67014407198152    8.20750102715480    9.08102613097884

