62
CSD_code = VEVDEH | q = 1 | S = 0 | Stoichiometry = C16H39ClN3P2Pd(1+) | MND = 4
Pd       14.22375689938732    7.86032608724019    6.80499621098389
Cl       16.45323517292530    7.88705982013789    6.68478049261050
P        14.33790456168218   10.07801667786299    6.22679666897866
P        14.55108658198876    5.65806871063443    7.32350768214429
N        12.83720081198401   10.78011794626114    5.91641264795391
H        12.85043134262611   11.79469634360393    5.92241125868394
N        13.10917518150475    4.80447303185360    7.46683552033270
H        13.20900524468913    3.88318221524277    7.87927125728138
N        12.07841988124389    7.82058844155935    6.97066837069872
H        11.91274203497385    8.12129546964659    7.93899222123201
C        15.16314658733421   11.23913330963706    7.42594786666520
H        14.77300537261347   12.24430881719571    7.21201041544451
C        15.15785718446796   10.23424891936372    4.57635105828216
H        16.20627231147627    9.95323794107803    4.72434325310901
C        15.48467886531094    5.51376717980846    8.93042364046246
H        16.52483095295598    5.75996239618514    8.69448389689306
C        15.37500251149177    4.59333636879769    6.05148737747755
H        14.93226411473193    3.59507833004078    6.16442051203367
C        11.61005829727561   10.24526586468386    6.48491652456303
H        10.78344847359076   10.82925921381409    6.07071835044630
H        11.56053159401709   10.33837137561935    7.58084427809016
C        11.39981008792219    8.78523142013845    6.08762509287527
H        11.75638434477294    8.63445741666295    5.06327219500537
H        10.31892100503361    8.58807873732388    6.10938687159449
C        11.88471087732255    5.47809260831853    7.87214018302967
H        11.96088965146023    5.97326389563119    8.85137047194128
H        11.10249060899516    4.71887476995984    7.94646630334229
C        11.45513507935947    6.49677907510338    6.81616540236775
H        11.70610124464974    6.10648316810884    5.82457413290760
H        10.36315977256841    6.60697603252970    6.87649082863591
C        16.68288548917647   11.25760285400553    7.33603860055004
H        17.08181792568862   11.94048896995537    8.08368467912423
H        17.01944712033989   11.59352390640941    6.35866854959404
H        17.09334712693584   10.26879013274719    7.52289717220462
C        14.69897020434814   10.79239518253934    8.81296765166161
H        15.13102326372932   11.42072260244052    9.58848098368459
H        15.02362705191591    9.76019240536821    8.98883377440058
H        13.61204716114483   10.84359669155696    8.90213611373031
C        15.06837298702144   11.63543832736871    3.98534497275870
H        15.60792795818320   11.66942463383574    3.04141621350041
H        15.50516115076057   12.37808682912282    4.64936118435899
H        14.03266091721444   11.90393520967145    3.79014697049598
C        14.48294078297192    9.19611548346071    3.67768673090956
H        15.03965298553561    9.06505575850159    2.75305553153688
H        13.47380932977007    9.51976329276277    3.42603928587075
H        14.42801633097492    8.22104868536622    4.19124170489083
C        14.92969682216608    6.57802568254588    9.87873084624863
H        15.57487756277224    6.69429216897799   10.74659159787265
H        13.93629465069270    6.30218842455185   10.23408331959587
H        14.86869882834722    7.55040948072513    9.36280688517062
C        15.40455989090633    4.11641090928725    9.53273878802118
H        16.07071016208988    4.04564297623751   10.38987321669904
H        15.70017216229924    3.35565036312135    8.81253180657984
H        14.39588004796069    3.89558263374559    9.88045731714902
C        14.94630259470665    5.18325515064414    4.70695917815044
H        15.23362850628629    4.53071786800073    3.88591997585762
H        15.43494132109792    6.15055064242696    4.56213083977964
H        13.86110872758091    5.31645248898221    4.67635123228090
C        16.89087462973562    4.50102540861480    6.15799471523169
H        17.27358012059972    3.91113079490245    5.32746512321350
H        17.20027173867792    4.01900386619376    7.08187385496889
H        17.34423779801334    5.48764859190776    6.10938019786290

