29
CSD_code = VEVGUZ | q = 0 | S = 0 | Stoichiometry = C16H12Hg | MND = 2
C         6.97672831147462    5.50907126365357    3.55170471918915
H         7.60617648513470    5.96833859643637    2.80275863199948
C         5.74004424748300    4.98236235481310    3.20419955400767
H         5.40766338793220    5.03323095007511    2.17759578056171
C         4.92598028784899    4.39141169127477    4.15904333606852
H         3.96777178940502    3.98802764154709    3.86504786659842
C         5.32661787759107    4.31222114841904    5.48233962636205
H         4.69011814503381    3.85095745358229    6.22293856663512
C         6.56032908041921    4.83639596446219    5.83465321700816
C         7.38325744670507    5.43426232284052    4.86686928235228
C         8.65711466274828    5.92035742537483    5.49561110670507
H         9.53528882220344    5.44256277402126    5.05392034061303
H         8.77960630972018    7.00025416597027    5.37921900062956
C         8.47827340275916    5.53380237648091    6.93548081083324
C         7.23838277372538    4.89799697632222    7.11713699730508
C         6.85443760200318    4.45187602386334    8.37322625946607
H         5.90220957623660    3.96325587364034    8.51818067205634
C         7.71184582094531    4.64231325897122    9.43976991128681
H         7.43631075958876    4.30402353696013   10.42821224159563
C         8.94642271702747    5.27294519678606    9.26144106788705
C         9.33389465057893    5.72459968329486    7.99515087140559
H        10.29020615757926    6.21155551423469    7.86751019242226
C         9.81175044580176    5.45581663515771   10.37017753948180
C        10.55679563813842    5.61410160121807   11.31603397061026
C        13.28610520276009    6.17388603994103   14.80353290760515
H        12.91348771744816    5.66424612419016   15.69448449955572
H        13.39918827355885    7.23045960043228   15.05557172497567
H        14.28307987914522    5.77958414817663   14.59529470062857
Hg       11.89041252900834    5.88658365785588   13.02759460415276

