72
CSD_code = VEVJOX | q = 0 | S = 0 | Stoichiometry = C30H29N7O4SZn | MND = 5
Zn        7.48870414932924    9.60387700806141    2.23952281300114
C         8.35390344862932    6.69483835447614    2.88111175427117
H         9.06358338723661    5.88026817258001    2.67250140643103
H         7.45882719618491    6.25873343695243    3.33961165870288
C         8.93969766659933    7.67423917751982    3.84528374459202
C         9.40006704613515    9.56721317222829    4.76520517548351
C         9.51679829029623   10.91089884248527    5.09779123760371
H         9.06402096319846   11.66073275073065    4.46937592428193
C        10.19950660412902   11.20885288622800    6.25900356575219
H        10.30832910685682   12.23944373714221    6.55966882061588
C        10.75233595784399   10.21118723225836    7.06651337997991
H        11.27768141362618   10.49541685378698    7.96583062573546
C        10.63774766831388    8.87081384814178    6.75133481573600
H        11.05750835323710    8.10253522811372    7.38248224751662
C         9.94961622589731    8.56344729761949    5.58863237715956
C         8.84787588362238    7.38748793047018    0.55509310631143
H         8.71657504151504    6.49733503103194   -0.08105914340283
H         9.88740437318154    7.40920223552508    0.90858174367929
C         8.58878239184052    8.62824950817409   -0.23144183809979
C         8.03101651028047   10.66521465253095   -0.65153290706361
C         7.61462624706781   11.98885926166330   -0.58563006665205
H         7.37755788485938   12.43054703318747    0.36868184371033
C         7.51841552426070   12.67238406573949   -1.77989716267249
H         7.19357853980394   13.70139098565351   -1.77790835237734
C         7.82732675948260   12.06774560649825   -3.00203182087269
H         7.73588241279746   12.64460502590274   -3.91006546724748
C         8.24136657658036   10.75181366142520   -3.08224804910581
H         8.47333529623634   10.28809946234285   -4.02876722693499
C         8.33571652287357   10.05675313944768   -1.88661379432365
C         2.13916121499000   10.84017656134893   -1.44165334059591
C         3.33961422645219   10.95217450879498   -2.11049964931354
H         3.41232612801528   11.54741398449961   -3.00748772285790
C         4.49840212969692   10.33595314039123   -1.62587881827749
H         5.42019280290068   10.46120143472008   -2.17577700348984
C         4.48301956042567    9.62518127413804   -0.45879113164126
H         5.37656059613704    9.17893361931708   -0.05803415989430
C         3.27143496213974    9.44454187986737    0.23640915986735
C         3.19107177213147    8.69430140342022    1.42779534046724
C         1.99816119252028    8.43812081889312    2.03769350330118
H         1.99935762656793    7.86291883530277    2.95018257678926
C         0.80651516159670    8.89987000787254    1.46240431016449
H        -0.13958993351778    8.64310716129683    1.91511405492737
C         0.84726120080555    9.67657659743256    0.33609114589958
H        -0.07033593858651   10.01927279763665   -0.11632089745300
C         2.07157475344872   10.00692459227137   -0.28207162939144
C         0.89864390939820   11.88043242840665   -3.25921078641198
H         1.47076831634696   12.79637684627768   -3.46594586697895
H        -0.14697510201734   12.07440196242819   -3.50365978446194
H         1.26169970177385   11.07870433902860   -3.89940257331090
C         0.38673962098164   12.45270942833438   -0.98821858259616
H         0.60726994403271   12.20905341162931    0.04692255068525
H        -0.69598682935543   12.48167726486829   -1.12822491600907
H         0.78809570593797   13.45424486722878   -1.19686909412008
C         5.08572858875618   10.39983474029397    3.19122732273140
H         4.84129322066843   10.05038355856157    4.20453560533308
H         4.16486267256134   10.79446121351426    2.74022379896004
C         6.08498909910673   11.57711186979093    3.31838831385187
N         7.95323542237806    7.41743381124247    1.69259345598837
H         6.98916878422085    7.17115044060208    1.41602371706380
N         8.79135519652104    8.96329002154862    3.69082367189007
N         9.63940954896018    7.37092978305842    4.96558753903540
H         9.84553341845098    6.44816043640018    5.31146091252316
N         8.21150766839868    9.73891572720852    0.34512140624982
N         8.69113708418981    8.76042792895061   -1.57524898693434
H         8.93668775163169    8.03690039176632   -2.23107138061870
N         0.96497677010881   11.46372020004845   -1.87864091561944
N         5.64359589173199    9.34068247109416    2.39319912116831
O         5.33846851325395    7.16363286120041    1.27404493169190
O         4.30592299878255    7.46325057882940    3.46267116473484
O         7.25566215978288   11.38964719891082    2.83270147340576
O         5.71665124581918   12.60292512192338    3.85949667138886
S         4.68904379989891    8.08418688174313    2.21366508006059

