61
CSD_code = VEVKIR | q = 0 | S = 0 | Stoichiometry = C24H28N4S4Zn | MND = 6
Zn       17.80611412440919    1.67752558059168    4.59155442247147
S        15.63550643590166    3.00240562977105    4.54243616276670
S        16.20061716700310    0.55742392658869    3.01119874382376
N        17.21278765466743    0.47607138027409    6.31249977173447
N        14.03155127105372    2.01566691340657    2.69480804790035
C        16.79778769251377   -0.77466773572939    6.23103764522437
H        16.50844561631824   -1.11156833541437    5.24489035154774
C        16.73456022831215   -1.61477501014392    7.33103681096867
H        16.38900379972160   -2.63016586241359    7.22279564269009
C        17.14019834479162   -1.11863970531687    8.55950178169973
H        17.12646149676187   -1.74460649320656    9.43949539691405
C        17.57101435201264    0.19388054364914    8.64362112855548
H        17.91237154349697    0.59400032060530    9.58475832322829
C        17.58638345896422    0.97616854609649    7.49007910391065
C        15.18437339404291    1.87964358167869    3.35059146187449
C        13.15175925322493    3.15307310253599    2.88535275208243
H        12.84461088899681    3.51846333774489    1.90056899927312
H        13.71749510694940    3.93418113618435    3.40219995982737
C        11.95736555619644    2.77291176735627    3.70623606591031
H        12.19043212337175    2.35545020210580    4.67625477074006
C        10.70844919245852    2.90980529934371    3.30330576841198
H        10.46810060325090    3.32422128683052    2.33726169470881
H         9.87390332184988    2.63013135586494    3.92318487457302
C        13.59402316665702    1.07344692700020    1.68077781109705
H        12.51358295927470    0.93950673846550    1.78680498718584
H        14.09782358225230    0.11955362429505    1.86147337950348
C        13.93841581567722    1.56980481140722    0.30876608394202
H        14.99036178756151    1.76242940921583    0.14996852925059
C        13.05265046888237    1.78217179252907   -0.64539117959537
H        12.00172149350516    1.59218787625605   -0.49490073331228
H        13.33844082433488    2.13609553839622   -1.62101225452685
S        19.97643687679036    0.35214532853737    4.54191462308031
S        19.41180585976506    2.79737708656281    3.01090669651219
N        18.40021495996438    2.87954709219026    6.31205517997933
N        21.58101470989199    1.33922961375682    2.69505045013938
C        18.81503562122434    4.13029363809858    6.23024114234817
H        19.10379909264499    4.46724195542287    5.24394175907725
C        18.87899453818304    4.97042802879746    7.33016829870131
H        19.22429444573254    5.98588063374893    7.22164183599084
C        18.47432459152384    4.47433227224339    8.55895687589423
H        18.48858599691806    5.10041754361877    9.43890078994656
C        18.04348413959204    3.16184279708976    8.64338648254712
H        17.70264689998131    2.76175151467920    9.58473017917804
C        18.02732528282513    2.37953261785345    7.48989059295588
C        20.42786214440765    1.47505349070643    3.35031142334648
C        22.46036612331054    0.20140168932043    2.88518025937872
H        22.76754230894721   -0.16362336219545    1.90026784105825
H        21.89420437074835   -0.57974136072115    3.40151395622798
C        23.65474491474520    0.58068902778627    3.70646221007988
H        23.42167187070045    0.99794379749942    4.67657623861559
C        24.90369164695250    0.44307651516749    3.30388050600984
H        25.14406936374473    0.02847709556636    2.33793238822158
H        25.73826604376639    0.72169343200775    3.92422665065802
C        22.01910128946749    2.28186596149731    1.68167060834458
H        23.09957009880099    2.41533000645449    1.78804646360796
H        21.51562744787629    3.23585084356420    1.86284452009473
C        21.67488478852895    1.78672286985463    0.30916703051340
H        20.62297964456461    1.59427981996586    0.15004008705558
C        22.56078981205269    1.57510052943415   -0.64502920226821
H        23.61178382588654    1.76438835108867   -0.49399543672048
H        22.27506856611186    1.22167368435339   -1.62083675494744

