25
CSD_code = VEVPOC | q = 0 | S = 0 | Stoichiometry = C10H10N4Pd | MND = 4
Pd        4.26276836028642    2.78688036626254    3.86517801352113
N         3.60851342432316    1.25308859267163    2.73293148822811
H         4.11315512721798    0.46528121495764    2.33051108824802
N         2.32512972133289    3.29458017950763    3.78336614747379
C         2.32956550427174    1.30786681710001    2.49574716197570
H         1.82386176323208    0.55056460526956    1.89741848899236
C         1.60673432859891    2.38292619270657    3.03830789701996
C         0.25662075833999    2.77649640492329    3.00422896445899
H        -0.53979376724436    2.26339465894880    2.50065215276372
C         0.17549770374853    3.94169883384866    3.74243085296856
H        -0.70206111358207    4.52840858736123    3.93461374795451
C         1.46931449695031    4.22304021090696    4.20210936596292
H         1.77892243521057    5.05730386353009    4.81016923284803
N         4.91703004879823    4.32071339671302    4.99735258628170
H         4.41239277278882    5.10853225374084    5.39975632619320
N         6.20040989837209    2.27920106410585    3.94695360819740
C         6.19597701262741    4.26594201863210    5.23453132533280
H         6.70168067593924    5.02325708165135    5.83284385844289
C         6.91880655602905    3.19086192371830    4.69200078537670
C         8.26891905187188    2.79728814920235    4.72608096124008
H         9.06534086350610    3.31040497054759    5.22963124000010
C         8.35005198282802    1.63211088292142    3.98783780000843
H         9.22761408040786    1.04541105706568    3.79563732506480
C         7.05622648299919    1.35074612455934    3.52819763538418
H         6.74662183114594    0.51650054914757    2.92011194606194

