71
CSD_code = VEVRAR | q = 0 | S = 0 | Stoichiometry = C30H28CdN6O4S2 | MND = 6
Cd        5.51474258843854   -0.00524999348387   -0.02643171461947
S         9.36721834096650   -2.07454121087173    1.46644735620339
C         7.97708892295690   -1.31904299438399    1.35774126867139
N         6.94462118611915   -0.76023133930810    1.28822861615236
N         3.56057867723098   -0.55407928837468    1.34923132766526
O         0.82061747262964   -2.50421308752130   -1.00740348501435
C         2.66772195502096   -1.13497434634607    0.56033793449972
H         3.03227483350775   -1.89971126728744   -0.11577355718440
C         1.31181762791907   -0.80872356111772    0.54672546113949
C         0.86890559584657    0.16485883767410    1.43812785791226
H        -0.16489208492679    0.47230107112450    1.46533048234461
C         1.78817030030156    0.73498527866306    2.30230666295435
H         1.48305137054603    1.48158990716088    3.01900101576669
C         3.11810032069149    0.35162081482267    2.21679036800827
H         3.86086768062944    0.77766839136279    2.88069155312584
C         0.45161109256618   -1.48617871712976   -0.46990588856790
C        -0.84386912986204   -0.80500925756983   -0.80153130135728
H        -0.64864181057457    0.22977549832845   -1.07722017721577
H        -1.50576847579797   -0.81385062560166    0.06206805894745
H        -1.32694384817132   -1.32074948701116   -1.62706216493601
N         5.60633428740920    2.13046005847977    1.14336113979962
O         2.88512757311476    5.76395239534004    2.43883676043949
C         4.70269616246491    3.06863876649363    0.88956544860594
H         4.18838194122766    2.98055713809968   -0.05652232270500
C         4.40278458390314    4.09858615257460    1.77707366673438
C         5.11253506738557    4.15257902994474    2.97688271275387
H         4.89059686589757    4.94003203602705    3.68252518741326
C         6.08241011012804    3.19860747867419    3.22501794440977
H         6.66514077145444    3.21841026130441    4.13224780462573
C         6.28889201175909    2.20075730190314    2.28403581696078
H         7.02367559793063    1.42197466716535    2.44632298170518
C         3.33388606503344    5.11487951368277    1.52283709252954
C         2.87041777507907    5.26327996504902    0.10593528724250
H         2.20472695515238    6.11888266150576    0.02806709644180
H         2.32657401794951    4.36870822238882   -0.20075873245055
H         3.71676780170427    5.38814970606204   -0.56544708034164
S         1.64735746689941    2.04116192578359   -1.42143247150252
C         3.05056998169856    1.30362029384704   -1.37209930325189
N         4.09406178090674    0.76123296813215   -1.34416394941731
N         7.49375613100389    0.51230363131203   -1.43691966878632
O        10.07969149851273    2.47755922128192    1.06116978167244
C         8.34839510672167    1.11537366671236   -0.62264875659334
H         7.95766895960418    1.91561256189487   -0.00489472287288
C         9.69626164537912    0.77334263409249   -0.51366351349993
C        10.17697579793072   -0.24120049565414   -1.33747702749969
H        11.20482308735582   -0.56523555149782   -1.28907383030266
C         9.30218719121406   -0.83387983798665   -2.23233544838724
H         9.63806954993697   -1.61266129928920   -2.89932811068017
C         7.97476379485668   -0.43290236601046   -2.23950876297738
H         7.26694081429642   -0.87746805204138   -2.92880494499141
C        10.49995648422260    1.47432068009418    0.53243208225606
C        11.80619912188512    0.83734402227063    0.90665852399158
H        11.63272772050156   -0.19681003320111    1.19923054916977
H        12.48815438135299    0.84765937602682    0.05892450780709
H        12.25392962580662    1.38164488920904    1.73381437033852
N         5.43131904110927   -2.14168650374460   -1.18938103658710
O         8.33029897528967   -5.65273263928775   -2.43170712900535
C         6.32842213528495   -3.07722786751571   -0.90430801273336
H         6.75749700829553   -3.02830958814152    0.08624413704101
C         6.72510435526558   -4.05495232948495   -1.81276991194309
C         6.11821484459442   -4.06207283036874   -3.06892180924745
H         6.41688791893631   -4.80811142555955   -3.79112236771012
C         5.14907733489394   -3.11664741282247   -3.35062225270847
H         4.64317654624458   -3.10367545125669   -4.30309505475437
C         4.84602865932318   -2.16839810640072   -2.38451910685973
H         4.11117854554513   -1.39461772196228   -2.56974296719273
C         7.79704945051318   -5.05884408392673   -1.52342607371999
C         8.15888723243495   -5.26142250645950   -0.08436652928526
H         8.82977659232722   -6.11162784897737    0.00672822404057
H         8.66884753283555   -4.37347576430634    0.29317467878145
H         7.26952348339809   -5.42191613241318    0.52027542866148

