127
CSD_code = VEVTEX | q = 0 | S = 0 | Stoichiometry = C52H67N5PSiY | MND = 7
C         9.21480430170551   12.46612107769290   17.58907763253186
C         9.66998349031254   11.15470734732654   18.00204152294339
H        10.67445966918761   10.91509662549530   18.34729276528185
C         8.52700881515312   10.41407190446544   18.29018767667815
H         8.50916607361077    9.41071157619222   18.68206824715677
C         7.39669581391743   11.20556699187612   18.05218723926099
H         6.37704302732223   10.88675879032584   18.18131876388870
C         7.80454918565588   12.46413078147391   17.64833395206835
H         7.17039034380625   13.29711146367417   17.39309798197843
C        10.94524509184156   14.43782096646735   18.97699720264224
C        10.47944841783893   13.88823275468599   20.16564736615281
H         9.71947969238277   13.11991621728798   20.13044867619983
C        10.98415331310994   14.33071420235612   21.37515122884293
H        10.62002840679424   13.90394681387737   22.29809967439970
C        11.95254337440382   15.32117560685338   21.40368259877963
H        12.34470007737429   15.66633623819476   22.34890333747256
C        12.42063793397290   15.86883462690917   20.21972733935836
H        13.17729325800018   16.63977455001195   20.24047451841773
C        11.92081579214223   15.42927765499624   19.00706847081588
H        12.29153065897474   15.84771777211331   18.08203128655132
C         9.21760407133982   15.22117960996619   16.82502285523033
C         8.96617295980517   16.36882758568314   17.56537291359005
H         9.42147280287311   16.49843498271317   18.53737379139046
C         8.12503249899387   17.34253169895068   17.05481153689447
H         7.92952193797711   18.23565573405615   17.63039260287533
C         7.53349043822135   17.17584356363771   15.81293589010083
H         6.88108476546097   17.94227800974549   15.42111435741353
C         7.77255053580034   16.02567643439678   15.07699627274506
H         7.30949285853510   15.88261436537902   14.11181283920216
C         8.60985620502059   15.05130269397001   15.58580544848311
H         8.79659180361620   14.14131002541700   15.02897526404653
C        12.74185988831212   13.93624424885716   16.30020803425184
C        13.75836480192787   13.39913321233437   17.11260941230944
C        15.06296222203872   13.83697554945403   16.93899689877722
H        15.85285374566253   13.41055844098004   17.53811418282645
C        15.36992135743040   14.81525124502652   16.01289319723404
H        16.39129078355269   15.14306235557017   15.88786596670483
C        14.35964364499215   15.38755279674708   15.26505059904895
H        14.60006889460955   16.17820757783774   14.57093171757635
C        13.04411485172063   14.96448148156373   15.39036331144462
C        11.95045274212783   15.66485847123894   14.61574486735458
H        11.04635246719503   15.04810079990934   14.66484727957991
C        11.65111509479171   17.01401869701413   15.27842360510938
H        11.36706903765396   16.88354710312556   16.32034521743544
H        10.82875746780008   17.51009897943379   14.76691246419551
H        12.52738713383483   17.65848715164568   15.23885436177540
C        12.28456948610807   15.89647436122670   13.14179126312738
H        13.10261278913102   16.60390485050862   13.02849468893343
H        11.41281412272799   16.31076379951878   12.63960409094900
H        12.55927449311115   14.96962255724919   12.64684171115585
C        13.44125601849447   12.36868240785971   18.17255429987247
H        12.36482296314018   12.42784247314852   18.38092320976404
C        14.17186054491842   12.64388357335661   19.48838533133146
H        15.23167366135145   12.41499356569506   19.40795018314164
H        13.75411359951123   12.02219710657937   20.27810700102104
H        14.06133626671373   13.68576667217901   19.77980299416554
C        13.75558801400120   10.95248603239077   17.68284427919053
H        13.17661384577744   10.71721460155251   16.78584688662385
H        13.51470102819286   10.22527396893987   18.45755013358416
H        14.81446497502431   10.86332336413438   17.44619106735117
C        12.20647554064652    9.25474941799791   14.60847485131968
C        13.53803514613962   10.91840267464726   13.43868562240755
H        13.70636820304477   10.16715483245906   12.65330884181813
C        13.20050400905502   12.24296547262259   12.75872029987889
H        12.34072563076802   12.12634905391629   12.10154690516650
H        14.04640023880151   12.58877419510121   12.16761919908596
H        12.98012398882349   12.98595798366542   13.52490598525707
C        14.83214972323642   11.08791265677947   14.24861930348942
H        14.72013744423267   11.90861793811528   14.95349113932063
H        15.66273450371122   11.31157630889830   13.58246133191437
H        15.06680111681545   10.18283199704094   14.80439852125941
C        10.80997541269809    7.78056204597301   15.96458116330996
H        11.18608087458147    6.96862699512053   15.32993601329845
C        11.40017567280814    7.61168927715461   17.37213127064758
H        12.48394613693581    7.71244099070995   17.34160569800598
H        11.15123565477789    6.63197045213139   17.77377117063841
H        10.99792984732573    8.37559424084906   18.03443230890062
C         9.28638732432624    7.66515165719631   16.00571377442804
H         8.86032563937272    8.51757762702941   16.53251224115721
H         8.99215622813483    6.74772412602418   16.51090466353566
H         8.88039798402592    7.65226129833960   14.99743617862476
C        12.99197284763985    8.13299112619790   14.00984920020025
H        13.02944611527482    7.28648877736931   14.69074421689976
H        14.02028331677496    8.44291568125548   13.84600841661629
C        11.39819356900148    9.08052577157895   11.42736478158307
H        10.55742367607194    8.76083580207423   10.81862061141190
H        12.10000503034887    9.58496451414739   10.76910612628595
H        11.03132542013162    9.81562252108890   12.14217095803399
C        10.87541320331092    6.25540627279238   12.61114685926160
H        10.55457107101545    5.83776736350638   11.66127663219029
H         9.99512596016299    6.65570048859903   13.10494945983876
H        11.25060948167564    5.43274566104173   13.21339714275347
C        13.61752915437245    6.88213237748149   11.27500286392448
H        14.08610008428955    6.03252122202078   11.76211086437008
H        14.39399553495936    7.61582053795534   11.07927183457738
H        13.24340226006345    6.54041892938845   10.31581172677383
C         8.40725242065663   12.34617227136601   13.36753589788453
C         7.08595701222819   12.52362904996478   12.92209937824352
H         6.28644220000484   11.92475062145622   13.33307945773124
C         6.79371038035123   13.45760501673064   11.94894648386936
H         5.76841651243259   13.57551043018957   11.62630627359112
C         7.78725107310536   14.23972713128394   11.38405570491561
H         7.54675108413036   14.96626075262796   10.62265485570246
C         9.09894494750140   14.07061191357561   11.80574166554697
H         9.88702023877576   14.66654403771276   11.36733319966399
C         9.40600281157979   13.14514563695463   12.77726728261347
H        10.43324297682853   13.00946216079134   13.11744966697187
C         7.21525401145454    9.62813743608990   14.15498850179323
C         7.88395670696925    9.10714550717013   13.04476259176969
H         8.81828456393656    9.55584685991144   12.73983339910017
C         7.35706991416455    8.03255087718023   12.35692107690207
H         7.88274412569332    7.64242797816802   11.49693545071007
C         6.16488976233466    7.45288846858789   12.76003420890387
H         5.75681291507464    6.61255297652330   12.21903557934897
C         5.49914082708233    7.96309196060017   13.86350582930768
H         4.56762917037902    7.51883226688520   14.18370889762252
C         6.01216911786611    9.04123966691154   14.55526956291768
H         5.49086684146323    9.43819158869009   15.41513228602497
N        11.44388618448791   13.37399379154222   16.36077728284378
N        12.42600235916068   10.53095034093531   14.29392692838056
N        11.18371817764308    9.08358926734176   15.43839033422802
N         8.78828645030692   11.46757052088638   14.34941303556035
N         7.76502390135457   10.65481821537663   14.90182211191748
P        10.28704206446118   13.84323720357119   17.37767774453041
Si       12.19694102699646    7.60254974992155   12.33174506487313
Y        10.57159004942058   11.27810568914737   15.50756675705377
H         7.09777356961452   11.15952621237900   15.48949580194688

