126
CSD_code = VEVTAT | q = 0 | S = 0 | Stoichiometry = C47H71N5PSiY | MND = 10
C         5.28276229271316    4.41334957801328    2.45832552535104
C         6.02128034539667    3.62385249030468    1.49177864111301
H         7.02535791512384    3.85116291869072    1.14496004981656
C         5.08485022473596    2.84223802656931    0.82321604063563
H         5.28895432122843    2.17089081697206    0.00514781759110
C         3.81230812721832    3.10642235286288    1.34667046935785
H         2.89779340896612    2.63738609386401    1.02713033664233
C         3.91597926036076    4.08085571134479    2.31918224737245
H         3.10845021577842    4.49839955338707    2.89679755562327
C         4.64011799957922    6.54795447914876    4.23379697814692
C         4.05786849188836    5.74330816695350    5.20660163931846
H         4.44199927616655    4.73903788601829    5.33851099997516
C         3.00439104162355    6.21957233511521    5.96461406957572
H         2.55661526800245    5.59712733285358    6.72474555691687
C         2.51791931750583    7.49842450917414    5.74427697438321
H         1.69482745717787    7.87284837680676    6.33531486213336
C         3.07949987992325    8.29332674652115    4.75926186983877
H         2.69062040760804    9.28476836583975    4.57749842359926
C         4.13831586283636    7.82239888423919    4.00262544742050
H         4.56769841361815    8.44565542347507    3.23145662371683
C         6.45634600206353    7.12600443031899    2.13200406571743
C         6.13478570030704    7.04254682205937    0.78323680895427
H         5.63037095953686    6.16095852698139    0.41310044713635
C         6.45146594613718    8.08744742368573   -0.06690605265458
H         6.20108083473421    8.02175612919916   -1.11563020046923
C         7.07957996670448    9.21983361061421    0.42535982835613
H         7.31875037601434   10.03729982803799   -0.23877714458744
C         7.40340438071795    9.30500582359100    1.77042862531650
H         7.89461100687514   10.18730881558958    2.15525067288617
C         7.09755559422237    8.25944925724054    2.62281476331932
H         7.35984965439709    8.31355844758112    3.67092061341225
C         8.37088693931267    5.95181944829061    4.58487614165021
C         8.38110221400612    6.43889368195428    5.90449518332180
C         9.53474125755121    7.02481973073180    6.40353832976877
H         9.54596345312554    7.39885424586000    7.41587267943634
C        10.67271936001947    7.13737539040845    5.62885933933612
H        11.57037015349088    7.57561511105671    6.03977785181222
C        10.64352792482833    6.71038376382854    4.31620901157004
H        11.52360847585484    6.82947568890964    3.70258768128601
C         9.50307427123433    6.13950008696675    3.77056813623456
C         9.49854046074956    5.75138085583924    2.31028525084955
H         8.46015648465888    5.55804867193158    2.01311790365972
C        10.03964944434546    6.87399351539695    1.42040483939046
H         9.58947064047616    7.82820704096209    1.68084400461736
H         9.81107444107471    6.66200659747486    0.37751724662031
H        11.11903096345961    6.96337881368128    1.51620924330608
C        10.30875323899186    4.47626131595694    2.07836310804931
H        11.32507765336179    4.60495620997958    2.44267045652227
H        10.35340222732340    4.25513315837671    1.01278321786028
H         9.85063194579452    3.63293155722337    2.59564753895184
C         7.13009575278884    6.40744042814445    6.75077750379331
H         6.44323178065767    5.67941365640762    6.30545389346183
C         6.47380027253564    7.79211787295838    6.71569343009912
H         7.13051979975053    8.53073833684083    7.17207744167848
H         5.53055993878308    7.78085995193660    7.25850756587204
H         6.27006707632489    8.10199816489506    5.69323054122541
C         7.37545449531102    6.00819080403486    8.20646760897586
H         7.96930981380598    5.10237461091220    8.26941254654199
H         6.42205604830368    5.83373207781654    8.70185299693210
H         7.88995734856733    6.79818058759676    8.74887781821813
C         9.35589980202171    1.25535296627482    3.81985873790911
C         9.23554075294453    1.71888348415581    6.20716966049838
H        10.31871533149261    1.54380180536937    6.27404893199421
C         8.90529079734318    2.98295965092511    6.99830467227478
H         9.49033533988976    3.82308047430254    6.62806013692189
H         9.12411873290512    2.84030999772766    8.05558424110012
H         7.84613328990842    3.21229234029735    6.86622409066341
C         8.49767867284790    0.50857719506152    6.79895488682772
H         7.42546032968937    0.65035280688797    6.67321630580698
H         8.72714683211658    0.39511323756555    7.85681235707036
H         8.78135003006063   -0.40625173744311    6.28228191702701
C         9.21189976149481    0.79952996669226    1.45119912686589
H        10.31003623920635    0.86887023076321    1.42037156245556
C         8.81294056075061   -0.68001685619134    1.32475606316061
H         9.12034438764545   -1.25395642664282    2.19557993305139
H         9.27912490325320   -1.11471941488744    0.44255612279772
H         7.73439737460182   -0.76662523774132    1.22609604081607
C         8.66521077218743    1.55349268078129    0.23916858622159
H         7.57940752769430    1.50908975009438    0.23513297055572
H         9.04014701501448    1.10298979239707   -0.67781603802723
H         8.97360799410968    2.59477776247240    0.26409055126426
C        10.61661778865520    0.45881941343425    3.99059653160265
H        10.71823123264119   -0.26177510389605    3.18395147564594
H        10.54680269249371   -0.11893747576293    4.90993448722496
C        12.88674155168004    1.77041902888699    2.27399957107111
H        12.20198090592369    2.34769886146751    1.66132397702185
H        13.05554546168668    0.81961188137745    1.77577013139282
H        13.83594385153940    2.29810036891700    2.29034190620080
C        12.04062245241975    3.20574113700233    4.92082602677466
H        12.75982480747827    3.92373430997046    4.53713980928342
H        12.21232362543676    3.12344725762720    5.99026871068629
H        11.04909637263237    3.62456562206386    4.77938454876584
C        13.50307593264453    0.46763380465667    5.00950361285743
H        14.46536723950695    0.96801416756407    5.04340531433195
H        13.65697202479011   -0.50098134583763    4.54347888470870
H        13.19271554158767    0.29041592222852    6.03521895960317
C         4.96514517444963    1.33663382563365    5.33642149488034
C         5.07871127209941   -0.34355856037431    3.67079127561293
H         4.14370581403514   -0.69095797201753    4.14397251718887
C         6.20748030799310   -1.31015694564525    4.05126524143167
H         7.15571235401669   -0.90158955068448    3.70623736006547
H         6.04838769065384   -2.28765911031241    3.60103557122206
H         6.25540294216718   -1.42564341827794    5.13262554483524
C         4.87766890514858   -0.30213985552053    2.15950211307227
H         4.04016663892096    0.34554282584496    1.91304556593806
H         4.68374716773250   -1.29945828270833    1.77013886517587
H         5.77322292916548    0.10420165079252    1.69228272429272
C         4.80459236816830    2.83230860247638    7.16782306198260
H         5.11514954370560    3.86940999640132    7.35210922572927
C         5.36402363712124    1.97305100532709    8.30981690210731
H         5.13536139378772    0.92201161632335    8.14491181055276
H         4.91702691516668    2.28032700461256    9.25316222045256
H         6.44161771885072    2.08584084459387    8.38340566138238
C         3.26862970118243    2.77656532380617    7.19683483302672
H         2.85357962542126    3.18461892052571    6.27796971402450
H         2.89302377908615    3.34857744286218    8.04297625625325
H         2.91708532420324    1.75285936814966    7.30297638897524
N         7.27712653265273    5.20175564226371    4.09435214928809
N         8.81370997837199    1.92964372488046    4.83477399811651
N         8.70729132407365    1.40515962772807    2.67645522244745
N         5.40944472654912    0.98677001951203    4.15016779260214
N         5.36280812025449    2.46714255657127    5.86677742527930
P         6.01177885555184    5.77938743347383    3.29038753081889
Si       12.22553472178931    1.51891094858182    4.04897284563702
Y         6.89893657944734    2.71090470941543    3.84659997692563
H         4.26303620415827    0.67239774765905    5.85782083921225

