66
CSD_code = VEVTOG | q = 0 | S = 0 | Stoichiometry = C18H33B10IrN2S2 | MND = 8
Ir       14.82198421123102    8.06146001455103    9.45810744990685
S        14.05621682014469    9.44801091242621   11.26515977340394
S        15.62425331084184   10.10260395187501    8.44125580191085
C        14.82989331332574   11.46576600741090    9.31223660099706
C        14.07140466888406   11.15012879842696   10.66433512781423
B        13.10707107026688   11.54631971672335    9.29002028436251
H        12.56867707745393   10.63834144852659    8.76950696389165
B        14.06802178923526   12.73485450365472    8.43846068339601
H        14.11416513433541   12.67335334719665    7.26531821287514
B        15.56910354972555   13.00937593667163    9.34115970449306
H        16.57318738414856   13.13600170234784    8.74380771045473
B        15.56958195049509   12.00390569167835   10.77714783126795
H        16.48723396133826   11.37183099283489   11.14586673196351
B        12.70073199863068   12.16554412782897   10.87460688802845
H        11.77667098093655   11.70106341789908   11.43545094018472
B        14.22184527114271   14.16276712648039    9.47919003326672
H        14.29960393787240   15.24609205509707    9.02596078226080
B        12.69299993172731   13.24356165110362    9.45459371908015
H        11.69383801255016   13.65799148476724    8.99098228234863
B        15.14669744299659   13.69388877744346   10.93572662210175
H        15.85837192738148   14.43529626392907   11.50826627766930
B        14.19922188761051   12.43968906131293   11.78240623800170
H        14.22812146220382   12.15902241269714   12.92304236616434
B        13.36349341808397   13.80578548599246   11.00895970535449
H        12.82703043301590   14.63345021846827   11.65101521349507
C        16.64099497450799    6.88729449987124    8.74799763130109
C        15.52988158667274    6.00560398808905    8.78749968258139
C        15.07599958449796    5.92806907350881   10.15042704766725
C        15.96596086319861    6.71548334604203   10.94970597963293
C        16.87939973437902    7.35833285417500   10.08290453145130
C        17.52665192915384    7.17347246051433    7.58002485211435
H        17.72290728909406    8.24201528577389    7.49462592748380
H        17.08045561113970    6.82858852020223    6.65005984407058
H        18.48465870154805    6.66715591638647    7.71162813607279
C        15.03721869443849    5.14642956817689    7.66431902694832
H        15.19227545331630    5.62624469669010    6.69989083029005
H        13.97555818803336    4.92947743899019    7.76959881422503
H        15.57521008971752    4.19627975109628    7.66269305931124
C        14.07859411070595    4.93605400192510   10.66621594151390
H        13.27701143807055    4.77513402947345    9.94738235645570
H        13.63599414777804    5.27187641405326   11.60173531054883
H        14.56560441691583    3.97493768097458   10.84615252194847
C        15.98879766448773    6.79830304310263   12.44154834103582
H        16.99385588188238    6.59062822412043   12.80781678649996
H        15.30373587916348    6.07898467947090   12.88221252968500
H        15.70265095697943    7.79302773168927   12.78608767304267
C        18.04539827241949    8.19692792614930   10.49819584597014
H        18.94992675657793    7.58737746229905   10.55828275342114
H        17.86835457356186    8.64762028927987   11.47230772898593
H        18.22283544835593    8.99326729430235    9.77675943705820
C        13.04752598691354    8.07835138239479    8.48645830636037
C        10.88828599097575    7.80122038189254    7.97144442874187
H         9.84245925697658    7.67013882683905    8.15821369004897
C        11.56231248032418    7.91188108699202    6.80785552140725
H        11.20404652137331    7.90396562975239    5.80115655933229
C        11.42609846758201    7.82218360073750   10.36957742264384
H        12.27466898559940    7.49062836759965   10.96326471965980
H        10.59659298645472    7.12540667518015   10.48340058862931
H        11.12435415813122    8.80731179859684   10.72923797539023
C        13.92169818351394    8.21057509623897    6.20359383157808
H        14.85211867145902    8.52750532150069    6.65081980584006
C        13.81624343717532    7.99381723391402    4.90133495455984
H        12.90795073033043    7.67958349976116    4.41768735024631
H        14.66936699637291    8.13437819332892    4.26424725572912
N        11.80412570628236    7.88925252580343    8.98457934965194
N        12.88789824836199    8.07570909576090    7.12727170619105

