41
CSD_code = VEVTEY | q = 1 | S = 0 | Stoichiometry = C16H18Br2CoN4(1+) | MND = 6
Co        6.11593568796755    2.93994323494813    2.60718114821665
Br        5.09179650132423    5.10457527647173    2.28092233071818
Br        7.15511035249534    0.76548177138490    2.79495468789028
C         4.71730409972661    2.37205655334914    0.02195177745633
H         5.49061174149124    2.94361605848253   -0.46966992614653
C         3.68296960552489    1.83371533170232   -0.72528323364822
H         3.67753558561912    1.95794633908904   -1.79572551926712
C         2.66944016905367    1.14778564642986   -0.07453470288260
H         1.85691031406987    0.70392722038643   -0.62742367290454
C         2.70838621140996    1.07089078435775    1.30622379381194
H         1.92045925462463    0.57917658345718    1.85204112011263
C         3.77396252050499    1.64773665039367    1.99033733100662
C         3.87732600376279    1.70676462234037    3.44509128517588
C         2.88483083071670    1.02128081650247    4.31310950861082
H         3.13279901985061    1.11047643898829    5.36563385205103
H         2.84930907364614   -0.03664112572563    4.05518247649531
H         1.89294961372150    1.44138454709154    4.14850624732212
C         5.26895456318938    2.57772708580217    5.22278374354783
H         5.65666891976843    1.62229489187251    5.59757854608480
H         4.41432067687645    2.88002730740861    5.83460935067941
C         6.36860779583841    3.64750985918474    5.27623548965144
H         5.92072088151471    4.63753652216820    5.42853471076200
H         7.06290022688043    3.44007169410121    6.09529327595946
C         8.13247244942681    4.30019016892150    3.75575840860381
C         8.91344045875815    5.10358530313682    4.73231378757790
H         8.36495862488297    5.26302469000545    5.65509909184737
H         9.15366219170981    6.07356781056759    4.30084046020863
H         9.85007690613773    4.59593529256094    4.96444492994048
C         8.56256543138931    4.16579992618681    2.36765354898632
C         9.77257983666984    4.64559647221881    1.87595782651524
H        10.43465209581177    5.19936659188505    2.52060334538369
C        10.11816605168649    4.38977823612481    0.56102640937199
H        11.04791053748690    4.75587806878357    0.15549634282222
C         9.25460058609176    3.62875676705200   -0.21106404214167
H         9.49448757814164    3.36950686326932   -1.22912445747737
C         8.06485403168340    3.18975868771419    0.34572693689853
H         7.40588567435148    2.55882664991274   -0.23220562973024
N         4.79416153680661    2.25662528888036    1.34227917168305
N         4.88614526347703    2.39542090244451    3.84196473148023
N         7.04999411461017    3.65464541777621    4.00278177416995
N         7.69807698130220    3.47355275237436    1.58961374315566

