47
CSD_code = VEVVID | q = 0 | S = 0 | Stoichiometry = C16H21N3O6Zn | MND = 5
Zn        2.57464381865759   14.29810308087027    3.32200246972226
N         4.56251808618242   14.22775603952807    3.09054959775765
N         2.49336898232953   12.18869552102372    2.82762703404062
N         6.96482727896213   16.77948703482888    8.01707132795193
O         2.70189501563846   14.79080182993676    5.12802620251837
O         0.95731929904513   11.01211107643089    4.95987638248263
O         8.07657315328113   16.74249949274241    7.52031112073555
O         6.72673718679570   17.22418754045690    9.12415425219958
O         2.39114538448494   15.87279987739624    2.00165577184435
O         0.70268866531700   14.75573576407497    2.77171296607724
C         5.05786664291481   15.24971244993348    5.21548628130250
C         3.72221642163650   15.25041608166591    5.74511197000520
C         3.54080643923087   15.78516933469646    7.05502886924554
H         2.53405345661570   15.78439414254327    7.44297302662811
C         4.57663120074402   16.27658099501725    7.79003329385174
H         4.42908150756120   16.67862912306316    8.78107721971538
C         5.87606821129054   16.26710655670634    7.25389673211189
C         6.10009420599116   15.76513907937553    5.98774259409918
H         7.10904794954875   15.77508304949193    5.59909378725896
C         5.38104527713100   14.77278723353962    3.90685673327031
H         6.42847568268565   14.89800764227094    3.60645551483592
C         5.00823726808983   13.81845960205376    1.78675936759650
H         6.08875624944753   13.98160256732513    1.66903493857110
H         4.47696740357464   14.43349463432904    1.05412577495397
C         4.68483435274571   12.34453580396282    1.53695760514159
H         5.21617723549925   11.73001594130313    2.26523299749290
H         5.06706653932506   12.08194965413053    0.54819068125917
C         3.19349321222549   12.01196686272666    1.54302906676137
H         2.68783834651646   12.64843991413867    0.81148487083484
H         3.08275820686197   10.96476594660069    1.21837518110839
C         1.10437619596348   11.73382653844990    2.65545386462200
H         1.09982507687010   10.69188869259092    2.30205112075349
H         0.60766889258413   12.36857804740380    1.92206623969346
C         0.34588075071064   11.81373270583097    3.97793116244070
H         0.30735754395337   12.86002410454186    4.30923322685227
H        -0.66848418332274   11.43241446721701    3.85197440320909
C         2.27808778330074   11.44121288178008    5.16295624553673
H         2.70594031635729   10.78730780560740    5.92528837867841
H         2.28606482092991   12.48001232560547    5.52341776534465
C         3.09731725748740   11.35422018691733    3.87505088978455
H         4.10690294326002   11.70433821973603    4.08761552327355
H         3.13410975756797   10.30775334662495    3.53812887208847
C         0.20507721956319   16.69809517849069    1.46690716540315
H         0.72189619185881   17.27164679589778    0.70410330700474
H        -0.16815864472572   17.37386773686231    2.23288443190511
H        -0.63888735465049   16.16070368215323    1.04450536714379
C         1.15629275196362   15.72644341212510    2.11739840489223

