39
CSD_code = VEWBII | q = 0 | S = 0 | Stoichiometry = C11H15CrO5P7 | MND = 6
Cr        1.88666229497898   -7.60840892405469   -4.35181979102179
P         3.01803597502278   -7.16377830760978   -2.30145263157598
P         0.40172557964023   -6.61206489411625   -1.04830670609986
P         3.48037824433918   -6.68577011172008    0.83209250372474
P         2.10558202968968   -7.87328392132769   -0.41927429573229
P         3.23884547576298   -4.95273847011505   -2.00619247701845
P         1.27661913513984   -4.58056705384241   -1.10244936889739
P         3.09589316531947   -4.61983916202094    0.16261620478373
C         4.77561184350857   -7.71353899201666   -2.10125821360461
C         5.62918739220579   -7.23290268603307   -3.26571835348403
C        -0.62154391964653   -6.42307224863082    0.49572795189854
C        -1.00434356135873   -7.78847505192600    1.04711033753141
C         2.61930057605888   -6.69126251888086    2.48474078802964
C         3.43671414046661   -5.89094553872287    3.48982123119213
C         1.02703483978316   -7.95751660724133   -5.96248772023213
O         0.49707621705175   -8.17431612220056   -6.95935124726163
C         2.93788222419240   -9.13661913707143   -4.59084517031036
O         3.54274128559921  -10.09823257684781   -4.76395872247008
C         0.88984396758020   -6.06027918574286   -4.07074889464619
O         0.35656621224504   -5.06418890185526   -3.84859805503865
C         3.07179313109591   -6.48002422838162   -5.25407673170094
O         3.70248822864589   -5.73471260041181   -5.85832671430410
C         0.63402611871142   -8.67342272250509   -3.46485436363808
O        -0.15366100444218   -9.33257805311175   -2.95179852820269
H         4.75386974418154   -8.80865173655070   -2.05799283599281
H         5.17772082093668   -7.33412245586305   -1.15408761827795
H         6.66711573030563   -7.52469309748580   -3.11800009573887
H         5.58622016006882   -6.14589698833609   -3.34493035684637
H         5.28068946567922   -7.66299249426455   -4.20462083865694
H        -1.51757082465797   -5.87612886665717    0.18506959014053
H        -0.10909910271206   -5.81592530612777    1.24649204938431
H        -1.68320514612552   -7.68325559942613    1.89124043744285
H        -0.11780047642206   -8.33018355393685    1.37783424992888
H        -1.49549938322011   -8.38269550095836    0.27876843072886
H         2.55281107171911   -7.73834637170050    2.79409878363522
H         1.60828259576348   -6.28816921661919    2.41108459573515
H         2.96627949157075   -5.92141531856639    4.47059044310817
H         3.51448360349770   -4.85109323133534    3.17495751590096
H         4.44274265782476   -6.29709224578342    3.57610461759762

