53
CSD_code = VEWJEP | q = 0 | S = 0 | Stoichiometry = C20H22N6O2PdS2 | MND = 4
Pd       12.40807232289929    2.64172726602336    8.96897662079359
S        11.13726160416836    2.31290223358272    7.07019968397462
S        11.06467655806601    2.65518851660990   10.84640043209011
O        15.04583799141024    2.11289815560406   -0.04714905874298
O        14.70547745595907    3.77254758808222   18.02112336391101
N        13.91832886912889    2.70537610342303    7.70026204457236
N        13.76463603065594    2.56857187771692    6.38442514708712
N        12.19101825242844    2.23013204948886    4.70313062150366
H        11.19538923162424    2.11574016932268    4.55322986664127
N        13.86862038527630    2.93752806381025   10.26177561171473
N        13.66537693131726    3.03475646423064   11.57431731243217
N        12.02932520048953    2.99515551256910   13.22898331108717
H        11.03294369052666    2.86971424131261   13.36403177770217
C        12.51967468163255    2.38381668352506    6.00010182974951
C        12.97360314410565    2.20644317147911    3.55447490981147
C        14.36057491376565    2.28815963811628    3.57139668554287
H        14.86503166618567    2.37034304971935    4.51852153757797
C        15.08413851723923    2.26015446940328    2.39235406056191
H        16.15936216607488    2.32562128866867    2.44501961801113
C        14.43338899236206    2.14740442956756    1.16871266885071
C        13.03923574063370    2.05855798950810    1.15162246645355
H        12.54287495309605    1.96778662599964    0.19883993952722
C        12.32145600789913    2.08727643027773    2.32426938363580
H        11.24364773932109    2.01817401197709    2.29494058176341
C        16.44843542576456    2.20662066954657   -0.09636955832488
H        16.70944556031564    2.16413451396424   -1.15261072755517
H        16.92646960756167    1.37238780554740    0.42737938644331
H        16.80337854454628    3.15261628300881    0.32551606359169
C        15.07780280753678    2.90385258531389    8.26780481116293
C        15.05176756479400    3.01776586458181    9.71440343798320
C        16.35199455238798    3.00699430530192    7.48974014678996
H        16.94621899279644    2.10123447437502    7.61072077135604
H        16.94301418753760    3.85316839312040    7.83313356903871
H        16.11697608820591    3.13179715873110    6.43625162613544
C        16.30018535162306    3.21764476134824   10.51510816271887
H        16.08622722090672    3.02304549734960   11.56255209461145
H        16.65547217628616    4.24330853304392   10.41601217398636
H        17.08605752588763    2.54781964768334   10.17377632997543
C        12.40608573630585    2.91905249720177   11.93828503293054
C        12.76708234432149    3.20100424284455   14.38917983224788
C        14.13430921297685    3.44868844061726   14.39303013899072
H        14.65808615804626    3.48965057974535   13.45375025506569
C        14.81330405076873    3.64389237829364   15.58271220972945
H        15.87438756134392    3.83347442567147   15.54619002315534
C        14.13623789093569    3.59771173229291   16.79635793782785
C        12.76021242521395    3.35614936766569   16.79252048764254
H        12.24226574064410    3.32585235114708   17.73762518392305
C        12.08693563352338    3.16143376529194   15.60931127634873
H        11.02281773369463    2.97495000335800   15.62236091017533
C        16.08955831998685    4.01334954449788   18.09082419462646
H        16.66448772271479    3.17982705007751   17.67410423030399
H        16.31811672445789    4.11267025643585   19.15077629972106
H        16.36371409266364    4.93902684192099   17.57419328314014

