80
CSD_code = VEWJOY | q = 0 | S = 0 | Stoichiometry = C34H27B2ClF2FeN6O7 | MND = 6
Fe       14.52591350918871    1.03525277043065    8.60850016467719
F        14.68945475859237   -3.26589943738651    8.75401736738607
Cl       10.45824569595956    2.54649862762404    9.16944997933783
F        14.33898860701193    5.34193188264571    8.45936079672324
O        14.84264862174765   -1.36574413940295   10.07268769544585
O        13.29931458377916   -1.48800756625888    8.20038019877714
C        15.89228557400436    0.32090345276985    6.32549531894639
N        15.05122561519613   -0.03302547665289   10.06934452271788
O        15.59796480470460    3.57270093464131    9.26675072666779
O        15.69995826601912   -1.40932531562121    7.80365852744393
O        14.45542582920957    3.44691165004096    7.12986610255156
O        13.16524581169091    3.47281678998283    9.18781160178980
C        16.08100923975137    1.88016928486492   10.72042528114448
N        14.77772093425240    2.13799509084220    7.10100517380550
N        15.55958560527617   -0.09769494811784    7.51838790856114
C        16.53751040440468   -0.27766758580301   12.01404562540857
N        15.60096928810750    2.25629784123254    9.56474847083269
C        16.48111108072668   -0.51580103815464    5.27588359053379
C        16.04983094009796    2.52062570101926    5.03087755672292
C        10.75199101525085   -0.76917555369656    8.81078682247103
H        11.19326373044712   -1.68107038813047    9.23955069341526
C        16.69084147951519    2.77849017236424   11.70492879651667
N        13.05421675022964    2.13798904149839    9.06481766602803
C        15.54281378495292    1.70125682516899    6.13556025853104
C        11.89000890773501    0.21772077475294    8.70339565709411
C        15.86271801704179   -1.27011364111077   12.72245502054620
H        14.83216868791560   -1.48447860455595   12.48995635756796
N        13.09615893255069   -0.16748811481346    8.37988001254949
C        16.51129708563771   -1.97113993139422   13.72219470400768
H        15.97978951593124   -2.73547484909108   14.26861389495786
C        17.55421570502761    3.79840943334239   11.30970245025892
H        17.78697147666651    3.92571745632660   10.26477658636358
C        15.86861812179767    0.47765632153193   10.95100063179419
C        17.45632270563074   -1.46519624566620    5.57545927076761
H        17.78882773165313   -1.58546135838110    6.59380600667847
C        16.38504059878828    2.62743674356491   13.05836385072775
H        15.69677204551040    1.85626444238755   13.36874306629988
B        14.39083639477032    3.99924065525770    8.51211932291156
C        16.04830104237935   -0.37456726629187    3.95632819355830
H        15.27602851187335    0.34142984151158    3.72020284233285
C        17.99661933077526   -2.24570579813456    4.57018899530277
H        18.75373098474873   -2.97652200124498    4.81111392999701
B        14.64189117562034   -1.92159715011811    8.70830794577993
C        17.56869835228277   -2.09562384637300    3.26188475531178
H        17.99153722029132   -2.70799887925929    2.47961954831511
C        11.86707023384559    1.61181205991006    8.98670951341629
C        15.24109278045251    3.46560805147746    4.40271758887522
H        14.22007828045802    3.59264521435088    4.72414683220120
C        17.83561020252627   -1.69844593835079   14.02098936620589
H        18.33942039453911   -2.24883384305483   14.80137519188895
C        16.94184308318675    3.47640129123191   13.99445050472831
H        16.69513128936692    3.35620279659834   15.03869185999520
C        17.80970891776346    4.48121303397814   13.59668611814507
H        18.24414339475914    5.14220987887616   14.33159374553339
C        15.74614729835448    4.23413259339438    3.37010559045072
H        15.11178920064405    4.96196066488654    2.88723621131930
C        17.87446173376036   -0.01221204009029   12.31471075150081
H        18.41003788592987    0.73878942316784   11.75425132984471
C        16.59017285106741   -1.16177641929693    2.95947254090146
H        16.24609026179169   -1.04854127167867    1.94229399862329
C        17.37434040562145    2.37107149480488    4.61606997801400
H        18.01349145591437    1.65836046972857    5.11451344172728
C        17.05872939658989    4.07644137315929    2.95844111821834
H        17.45058159541294    4.67999970386881    2.15350566893750
C        18.51573974205562   -0.72126207608227   13.31128869301559
H        19.55131037891583   -0.51237298938196   13.53458485975157
C        10.11788796965658   -1.05831039635222    7.43625338599883
H        10.81687788302004   -0.88259095664025    6.62280077551044
H         9.78643435905208   -2.09563981633233    7.39902612298593
C        18.11129080214458    4.64007223359799   12.25461713431687
H        18.78111151436988    5.42604724275101   11.94004950929952
O         9.72517693746992   -0.30276627153611    9.65233984730336
C        17.87171321168071    3.14662795460889    3.58748685439497
H        18.89900276401805    3.02783419689229    3.27686679508243
C         8.92210986821893   -0.11014393764429    7.43853006849111
H         9.22831782919747    0.89332365657106    7.14399212471874
H         8.11597715288304   -0.44389247229997    6.78986944659361
C         8.52355558252965   -0.12944212701161    8.91224990154478
H         7.85264547215535   -0.97269834145074    9.12501749653477
H         8.04941939589867    0.79533896521158    9.24571174436698

