39
CSD_code = VEWKUE | q = 0 | S = 0 | Stoichiometry = C13H19FeO4PSe | MND = 8
Se        0.20616544131192    8.46855043363949    4.86384886507075
Fe        3.67180472910767    9.63538855310859    4.10964972362718
P         2.01002358332885    8.27200996545979    3.76956397630618
O         2.77464058539851    6.91396928796244    4.15129100388053
O         1.67659376452952    8.01588987472372    2.21601761517961
O         4.84840532328491    8.29234543210962    1.84663520314182
O         2.74869701036079   11.61411940863616    2.22500688174473
C         4.46651273851737   11.10786383443370    5.56684048243619
H         4.62137548770402   12.16459136277413    5.41952564125838
C         4.41432312477890    8.82139193689942    2.75963446508229
C         3.55686329314618    9.13047986395125    6.28278539385583
H         2.89674358993123    8.42399043243119    6.75912911101044
C         3.29364407331893   10.50794063279861    6.09889603786186
H         2.42014109385748   11.02929483261687    6.45413308494941
C         4.85790383249152    8.86400670977266    5.80170449793987
H         5.37970439067388    7.92567684103100    5.88949895246361
C         2.07617686195283    5.65279322403501    4.15907887248370
H         1.04826280151927    5.81862983366766    3.80724112142434
C         5.43120072632652   10.09545317318678    5.38160543560812
H         6.45380606204909   10.24277679549388    5.07375532778322
C         3.07323311343570   10.82590995640714    2.98616529055968
C         0.42083330772264    8.28370396669788    1.57699807690072
H        -0.38598482648357    7.97756224516286    2.25757238645400
C         2.79856608488808    4.71235849532574    3.20791208002942
H         2.84466718642803    5.15513795435119    2.21576896390812
H         2.27255014938304    3.76311897155577    3.15206757241028
H         3.81338000512676    4.53935342166201    3.55810126742810
C         2.03909023983246    5.13409651242394    5.58774696343747
H         1.47594167441037    5.82208256251483    6.21409642234674
H         3.05058656885971    5.04425357859813    5.97727197104097
H         1.55590758797012    4.16151520418074    5.61659525334331
C         0.27789095553601    9.76649705090175    1.28064809114832
H         0.27740745848063   10.32702914376570    2.21363766587413
H        -0.66061968871878    9.94935097089109    0.76499076010390
H         1.10215197508873   10.10940307501737    0.65927275171356
C         0.38733598571304    7.43383678153751    0.31572416776901
H         0.50697188418567    6.38285845222482    0.56697685881209
H         1.19612965446989    7.72814522653403   -0.34882556256983
H        -0.56242782994721    7.56962400150309   -0.19326267381528

