74
CSD_code = VEWTEX | q = 0 | S = 0 | Stoichiometry = C22H44N4OP2Pt | MND = 4
C        18.13289448948294   15.47931625886234    7.27897539079379
C        18.45537761401789   17.12994826806241    5.97235424858217
H        18.93724731471295   18.00284778548897    5.57831115459401
C        17.32446935794169   16.49029384404705    5.53146836354760
H        16.66773760324809   16.70021854705380    4.71199940479125
C        19.91061234044905   13.40955093452715    8.01164238055286
C        20.23319078293082   12.19586670982950    8.87930982927544
H        19.40600799579002   11.48776591556938    8.86294311538786
H        20.42273696515644   12.48018845640845    9.91049693324055
H        21.12245826660982   11.69788128775913    8.49504925914825
C        21.08040590490434   14.38664412805704    8.00241627897318
H        21.89546364107649   13.97444228340625    7.40869624580334
H        21.45161138386461   14.55565855636647    9.01003599399310
H        20.78282321609382   15.34069073206008    7.57188198330634
C        19.59944913599446   12.92550242811521    6.58979182629619
H        19.54649077613985   13.76265395782503    5.89651096616246
H        18.63817198068624   12.39982030485582    6.57545358695471
H        20.36969570452191   12.23980202702816    6.24075313386226
C        18.37024330443232   15.20876183183350   10.12921852737755
C        16.91917722335807   15.68734352224775   10.26622723302259
H        16.23838634075233   14.82781602053542   10.22239319851072
H        16.66791392353725   16.37812278421799    9.46159080137613
H        16.76596292743599   16.19697370213315   11.21613440034500
C        18.71904334985789   14.32150305632859   11.32157588729424
H        19.76629481610862   14.03084568696574   11.29980670749167
H        18.10522974228218   13.42218342883028   11.32759976990943
H        18.54191096164130   14.86612099042634   12.24808577634132
C        19.31465099944456   16.40541975047572   10.08011189176306
H        19.07239005150326   17.08885770052672   10.89315054169151
H        19.22824594309393   16.93821637908134    9.13661763499534
H        20.34771243940546   16.09335922084130   10.20104912610441
C        13.85256964436894   10.81864334615552    7.39235341512417
C        12.94589885045884   11.33053408182006    5.48260233670363
H        12.77782322174397   11.85323241088757    4.56319035847307
C        12.30845419727838   10.25108920004189    6.04004171793762
H        11.48131677714604    9.68340029112346    5.66193655368966
C        15.81625262828986    9.23932276524399    8.72867323723804
C        16.70267845470118    9.36861039143427    7.48290508423722
H        17.30901320618647   10.28035813456873    7.54518317737682
H        16.09011239077721    9.41895076926776    6.58349137241130
H        17.37268490915487    8.51509490045590    7.39402669865881
C        14.85708337029629    8.06396026284298    8.56001231390174
H        15.41391363671837    7.19795628908258    8.20421371637845
H        14.07108598892442    8.29004059642517    7.84443432125844
H        14.39111204531006    7.79637894231453    9.50359654067872
C        16.69319184952858    9.00365280571075    9.95580295006344
H        16.08752856341706    8.82570732445802   10.84099491111933
H        17.34386441737928    9.85558459555554   10.14135693463062
H        17.31609082388000    8.12483476520286    9.79497926682013
C        13.81667897492275   11.18390444854075   10.22521855561640
C        13.05354034533101   12.46164037279479    9.86029061370944
H        12.41170670550237   12.29854998119825    8.99615671148521
H        13.75913298920361   13.26516318143883    9.63258555338884
H        12.43099791370528   12.78552416534259   10.69303258497720
C        12.84547762416420   10.02560514964193   10.41361463726121
H        12.02858449755069   10.33344537334338   11.06546168407700
H        13.34049983358168    9.17550193741556   10.87537043517064
H        12.43174887875810    9.71739176112055    9.45538428645442
C        14.62244573775025   11.44828357210476   11.49543431407133
H        13.95681970545868   11.75045415081858   12.30290649596431
H        15.34413442890920   12.24828748704564   11.32105791621992
H        15.16511975784030   10.56336863390456   11.81513999471149
N        18.95184604887459   16.49489282363573    7.05618422618665
N        17.13509062981976   15.44325181006231    6.36674491709373
N        13.92723148014336   11.67572185562660    6.34783081607012
N        12.87627658706621    9.94135201117145    7.22609540715721
O        15.43520534158308   13.64203625767960    7.03623814392924
H        14.77271070761084   14.17100610009772    7.48554323740002
P        18.28394772783801   14.19800130543783    8.53988462134333
P        14.99751769866176   10.94112943167696    8.78073153061104
Pt       16.57006698346293   12.63975668512558    8.62976920600793
H        17.31074022038851   11.98635015617003    9.76695283373108
H        16.36830397832407   14.71587310310399    6.42788858156986
H        14.57499373537364   12.50883987181539    6.37593619816243

