87
CSD_code = VEWVAV | q = 0 | S = 0 | Stoichiometry = C28H46N8NiO4 | MND = 6
Ni        8.80992268311884    1.63433197452461    1.20094738631515
O         9.30471631480644    2.19000115293998   -0.76397668898054
O         6.72220543636370    2.15025969004754    0.88228478783625
O         4.25040627656954    6.13086468165290    1.20070898267185
O         9.16788993019512    0.04685092706497   -4.94110254271372
N         8.85617128766698    3.35240398845873    1.82109382557750
N         8.69848971165275   -0.01743434288486    0.44781176854337
N         7.96996677044953    9.74331343394412    4.23799888728350
N         8.37616716198459   -2.15721730123714   -3.86506705174255
H         8.47677653025009   -1.89193983775939   -4.84769395641599
N         6.34509181060395    7.48118162606296    1.76738178084426
H         5.35676314980294    7.71063135670820    1.63567037347358
N         7.57267829479296   -3.65018954419381   -6.02330623328375
N        11.16968441853448    1.78533277425915    1.68704006904496
N         8.09514956681489    0.44857253432627    3.08862426242547
C         8.46596233214532   -1.22955896494409   -1.64583704459322
H         8.13264938684846   -2.14680232167795   -1.18256365928791
C         8.74089886695485   -0.09221329662096   -0.86045787098667
C         9.11906241275757    1.18835548719073   -1.52415261837941
C         6.55268539498802    6.16903900733860    1.65450854342135
C         8.59948049300239   -1.16606094635016   -3.00909997777444
C         5.28442046727316    5.44809856543518    1.25645923526370
C         6.59205445657523    3.38348138569799    1.13264308994622
C         7.80448898733924    4.10998139295529    1.62784693880196
C         6.63268064067840    0.47390484460385    3.16828200288712
H         6.27165800310525   -0.28386841330889    3.87946588678652
H         6.19529968825390    0.30024633025107    2.19010890787382
H         6.30531602892355    1.45595747251284    3.50263180449871
C         7.25928391721126    8.56892228590799    3.76886170062599
H         6.21892876821598    8.65119183630595    4.09353903778537
H         7.67025529398946    7.63421077882824    4.19119739250586
C         7.73309902945178    5.50273466322543    1.84430921385913
H         8.61509522153664    6.05137944082345    2.14053808324750
C        10.10645775407546    3.95886318789712    2.22819340903530
H         9.94681730879928    4.63021372403944    3.08288825760473
H        10.50851587155345    4.55394896196769    1.39850815076740
C         9.26311954962542    1.22330604743305   -2.89833587810556
H         9.54295339040139    2.15102986076924   -3.37297977835304
C         7.26157894890640    8.47855594188214    2.23243457695866
H         6.96682810415810    9.44949289644509    1.82897388991491
H         8.26039739543981    8.23766133625699    1.86143436283029
C         5.40014322787213    4.07749752474757    0.99419249901667
H         4.52424663039771    3.54216061812764    0.66148068644260
C         9.04203696641591    0.09874379562655   -3.71192013355992
C        11.11405467835809    2.88814159024160    2.65006366165590
H        12.10763731379580    3.35156268747729    2.77935029794075
H        10.80002866112037    2.48303778483676    3.61459338541510
C         7.60212022950064   10.08387870113043    5.59729254077687
H         6.52852243363821   10.25740878594884    5.64687402438930
H         8.11331099868829   11.00227746422244    5.88161651735329
H         7.86604000610281    9.29759104159483    6.32198333917899
C        11.91008461108997    0.66784080174032    2.25972015497553
H        12.96018813710834    0.93768613343020    2.44925138733348
H        11.89000481855254   -0.17184981280428    1.56701558412110
H        11.46810347493660    0.35414011698787    3.20355726248175
C         8.28762762280692   -1.16554456232466    1.22564569646425
H         8.85536367607910   -2.05753508223398    0.92755499216165
H         7.22288790204115   -1.36731809331778    1.05161246214532
C        11.88252896917340    2.21082410008835    0.48143516277799
H        12.89795367744629    2.55437701927614    0.73028968690045
H        11.33777553149655    3.00452952209560   -0.01997400440576
H        11.95314709196463    1.37361631870759   -0.20980876449649
C         8.54666339028913   -0.89494961362634    2.70809767759217
H         8.05155459163418   -1.66606015316346    3.32251948696616
H         9.62276752515879   -0.95482873580966    2.88442597677029
C         8.60734415135838    0.78176599359898    4.41288817149797
H         8.32438446168144    1.80242503392863    4.66464295752983
H         9.69213185636390    0.70257104433811    4.43773196470478
H         8.19798660243842    0.10699457520416    5.17956336100614
C         6.12698348282592   -3.62230565940735   -6.09503575492898
H         5.68790709808719   -4.63099180427027   -6.15758928910457
H         5.82901635218123   -3.05822969619274   -6.97665817586308
H         5.72346830715583   -3.11851334637981   -5.21976954491870
C         7.87624890974150   -3.47150081277213   -3.59117330912753
H         6.81724674562300   -3.42642759969874   -3.30338660776561
H         8.42794478815895   -3.91866112311852   -2.75618498436687
C         8.15017848012982   -4.17775555681835   -7.24099116711100
H         7.87599467237810   -5.22834906150153   -7.42519942617042
H         9.23523160551239   -4.10309366807886   -7.18804913006020
H         7.80605299137082   -3.57734717927327   -8.08120881136776
C         9.40556218432374    9.60535627151083    4.10908944933253
H         9.88143737443283   10.51962096492666    4.45926554077175
H         9.66900577691301    9.46466321190661    3.06332794792009
H         9.80312075869203    8.75841403755343    4.69227825885266
C         8.06137366861798   -4.33626273974960   -4.84198646225547
H         9.13113669630259   -4.51175448857059   -4.97952447038347
H         7.57098381427777   -5.31358096888872   -4.68641340667715

