70
CSD_code = VEWWAW | q = 1 | S = 0 | Stoichiometry = C31H33FeN4O(1+) | MND = 8
C         1.06448031024222    1.10979359865729    4.97021633100675
H         1.28357368658627    0.57561759990154    5.89901655590205
H         0.19192095980079    0.64486255199859    4.48446414352810
C         0.72183622461379    3.44515054066891    4.30362133315416
C         0.49304558033170    3.01867351825959    6.49455055336739
H         0.47545101356841    2.43112207258952    7.38862575502703
C         0.26369356212369    4.33672623290329    6.29825585105492
H         0.01470090011880    5.11314313640074    6.99127990440577
C         0.25001851747235    5.85285545763586    4.35294452769484
C        -1.03414689605822    6.28671564797259    4.02096183776027
C        -1.17138274475207    7.52207498235951    3.41016933609786
H        -2.15793525440194    7.87060593785520    3.14243429720942
C        -0.07040516804585    8.32766375323345    3.14318468409637
C         1.18681828124872    7.88628628025012    3.52761174577209
H         2.04757764055639    8.51372392090263    3.35287660658462
C         1.36851456133277    6.65523160592154    4.14116581033237
C        -2.24076376631009    5.46764847340800    4.36959337420837
H        -2.54586625441903    5.68307391820549    5.39428987048436
H        -2.03982054278564    4.40145200309204    4.29747628689042
H        -3.07541631245372    5.71684383025915    3.71973708310593
C        -0.25665038016812    9.65070160120569    2.47206624927949
H        -0.91927805553211   10.28307640026471    3.06060995364604
H        -0.71397330354146    9.51600769036656    1.49313429771235
H         0.69232501908428   10.16340939240382    2.34542906039135
C         2.72564009209918    6.23552131690724    4.61640179582803
H         3.49831331867017    6.68441544501854    3.99958296471216
H         2.84040355225040    5.15356509866970    4.59226288610682
H         2.87502268260404    6.57469782197969    5.64205220816214
C         2.32455984307407    1.81343393926426    2.98717879592155
C         3.27232239493364    0.19039125129150    4.21272570694661
H         3.36828117482801   -0.51255730914594    5.01369285813919
C         4.08365975426717    0.45028064058603    3.16268894166669
H         5.02182956199383    0.01918172588491    2.88146945644269
C         4.04261025678728    2.00130876599992    1.24532639284571
C         3.83277194076869    1.35263649897532    0.02882664345465
C         4.35529516123123    1.92645766949794   -1.11958502000282
H         4.19597983450507    1.43837769137303   -2.06971122850025
C         5.08523258689412    3.10706154934113   -1.07405473890483
C         5.31618182109327    3.70124050951798    0.15911313059419
H         5.90664346588648    4.60339293028761    0.21071912531518
C         4.81079344524920    3.16098891115803    1.33140211791185
C         3.11346681096710    0.03851120944955   -0.03330631570179
H         2.32618580242719   -0.02711366535708    0.71386048988045
H         3.81856103078438   -0.77319501633766    0.14983641443592
H         2.68266666596649   -0.11800663414781   -1.01872816905756
C         5.64803510799890    3.70108501123357   -2.32533817188657
H         5.00593417465695    3.49442589259962   -3.17767819818654
H         6.62676281858799    3.26753315824762   -2.53119497214859
H         5.77170495519540    4.77592712733975   -2.22455096423367
C         5.13522203047859    3.77691981506197    2.65781160130095
H         5.32954230374697    4.83915020478742    2.54485050219690
H         6.03283567495548    3.31224117551409    3.06736511186124
H         4.32333585384603    3.64116669545462    3.36988102087606
C        -0.96956785482841    3.64707667994946    1.64339288033458
H        -1.58096786866662    4.50216685550479    1.86858569046987
C        -1.09435419657968    2.35234722312879    2.21723355782444
H        -1.80652201153312    2.06659502246134    2.97431517147488
C        -0.24201901422138    1.48100611908045    1.51759541916290
H        -0.18823381598386    0.41201059541167    1.64545633727800
C         0.41761442924250    2.22852222000742    0.50398472472694
H         1.03433219771768    1.82755471476080   -0.27988206142948
C        -0.06263178698090    3.55367013854417    0.56653308336576
H         0.17591537479022    4.34290443644671   -0.12593894456160
C         2.04069667647642    4.39026958935618    2.09172904543343
N         0.76958914992201    2.48702948162929    5.26044855754765
N         0.41132778548271    4.57505364330194    4.95761252918434
N         2.19720237070026    1.03334795850328    4.08764773356522
N         3.48866853615140    1.44372921262008    2.43133331582023
O         2.62152570394191    5.28727241123867    1.68566706333702
Fe        0.96531262903884    3.06284412092981    2.42907006174437

