42
CSD_code = VEWWIE | q = 1 | S = 0 | Stoichiometry = C16H21FeN2O2(1+) | MND = 8
C         0.23688823974345    1.28816519276751    2.75218303034490
H        -0.12322259530990    0.27337207301443    2.73034262118082
C        -0.19429935111537    2.33808500371918    1.89634735085818
H        -0.93362602580782    2.24963126042022    1.11826561405914
C         0.36020131604810    3.54814946319204    2.37533593663543
H         0.13540875077210    4.53439113555680    2.00522870870949
C         1.16822820840037    3.24669659297918    3.49647067498813
H         1.61508286400807    3.96761422457595    4.16002697336910
C         1.06752707112384    1.85068703434242    3.74133469319737
H         1.47316353835378    1.33456490996575    4.59600491414205
C         3.70768106806355    1.51871501670601    2.45309030111823
C         5.68819138438521    1.41110770089203    3.45397599438840
H         6.58448480933388    1.76672731988575    3.91581244083969
C         5.27716117716893    0.14427146215972    3.21787511512386
H         5.75672929628974   -0.78507844014727    3.44036583646737
C         4.79442993510002    3.69334873288115    3.06418879001245
H         3.84772627539923    4.07674032240925    2.66717949083624
C         5.94401030379979    4.20200032246616    2.19951933205119
H         6.90246831602984    3.86154248696926    2.58184526496184
H         5.94569176023361    5.28766543430162    2.19551884128097
H         5.83434327489013    3.85455223494706    1.17510143123873
C         4.93764666590885    4.12945081585997    4.51999264800063
H         4.16034612362623    3.68176384097275    5.13488534772532
H         4.85148894669264    5.20991444504561    4.58567271343645
H         5.90522389753364    3.84497412446754    4.92379992401313
C         3.28973581877373   -0.93981703314284    2.19903896582281
H         2.35217169507689   -0.55801757280285    1.77918073375875
C         2.97171904135270   -1.81076977176007    3.41123894680979
H         3.87341723471444   -2.24824247109217    3.83043683571016
H         2.31248956011747   -2.62042537254216    3.11318147080934
H         2.47495375199268   -1.22945951763541    4.18411695292644
C         4.04488045426977   -1.71277102102630    1.12193406093462
H         3.43072149108500   -2.53203080527269    0.76094483342279
H         4.96977732609515   -2.12806865288664    1.51274319568561
H         4.28152633823854   -1.06438931337982    0.28182162392554
C         2.76389378670040    3.38729735894570    0.70888839788844
C         2.06419074338632    1.21530518239454    0.29033237103960
N         4.71233266655651    2.24327485129318    2.98106831342267
N         4.05807511790983    0.22704406949436    2.60509170247156
O         3.21737577852954    4.11738088659481   -0.03731235734850
O         2.10268286532624    0.66041917787858   -0.70239704032521
Fe        1.98788107920337    2.20101729459070    1.73802700406920

