107
CSD_code = VEWWUS | q = 0 | S = 0 | Stoichiometry = C50H52Br2N2Ni | MND = 4
Br        1.11354584200074    7.55226497734535   14.41753762629565
Br        3.44699062352905    7.04796037402624   12.12554371472563
Ni        1.17871707791599    7.09103944397472   12.27612236016580
N         0.89564814739932    6.32398886846318   10.58119464263371
N        -0.37276033500513    8.49869813595323   11.65063138088954
C        -0.79673680156046    4.94214380164418   12.85797005360835
H        -0.19616783167406    4.93562743365889   13.75578570946418
C        -2.02159577105735    5.59542274661036   12.88901960631791
H        -2.31073311927170    6.12057270568692   13.78840070476408
C        -2.86039812577377    5.56387264731084   11.79005135334141
H        -3.80850133221793    6.08290820734953   11.80614180955824
C        -2.48653861256220    4.83950584168385   10.66846828943578
H        -3.14329623050318    4.79284346236078    9.81089117248308
C        -1.27377185112643    4.17873600809457   10.64091737582692
H        -0.99025537935569    3.62615989183963    9.75577854381440
C        -0.39823858066320    4.23771964053932   11.72349279531527
C         0.92860339010899    3.50780765026400   11.62983481178653
C         1.70515527267171    3.98925989288954   10.40858494027382
C         2.54868054780840    3.11948332087463    9.73433166624904
H         2.58872530032393    2.09665693019489   10.06797344101764
C         3.35428173699053    3.49681310240603    8.66530223961535
C         3.29880192365264    4.82264116801880    8.25824211121580
H         3.90406732630831    5.18679509404924    7.44558655298623
C         2.46334828610163    5.71275993561725    8.89789721404463
H         2.43421615094280    6.74776593266029    8.59297412725598
C         1.66434193425923    5.31976820614258    9.96869092083131
C         1.82899289116844    3.75188645311142   12.84857179898173
H         1.96536511558288    4.82197289633947   13.02822706575395
H         2.81215623162505    3.32136458226769   12.67177829193890
H         1.40618385948868    3.29923429150172   13.74273053514136
C         0.59901275229646    2.00548658082616   11.57008992939884
H        -0.13103476489391    1.77174286313059   12.34329994539372
H         1.48353516301556    1.40231770837019   11.75770559715643
H         0.17621699952088    1.72708809027298   10.60749713848091
C         4.25339671072036    2.46250069792178    8.00960646685438
C         3.38543574319941    1.33289335007793    7.43601478308858
H         2.80784010401505    0.84005710418751    8.21346083175004
H         4.01421644081047    0.58641692413858    6.95592703258326
H         2.69346218642621    1.72761027724053    6.69419855049688
C         5.21612591706371    1.89888636302117    9.06392570937294
H         5.79213433455657    2.70461644818849    9.51330065297926
H         5.90503198372720    1.19506476384579    8.60206386184241
H         4.68254115252140    1.37974141223666    9.85512860548885
C         5.08724439372936    3.05295135601114    6.86963716100703
H         4.45153105200853    3.44667064665995    6.07947323899899
H         5.71347135960429    2.27476107327645    6.43839630265960
H         5.73777848502070    3.84428601454188    7.23379581466378
C        -0.10103543110761    6.85511744923176    9.96307539270509
C        -0.74867851946963    6.55199540650524    8.69388101385938
C        -0.51922818409101    5.67673476270368    7.65923361562419
H         0.32306837655744    5.00202630639767    7.65663153967518
C        -1.41389419794628    5.67078523642678    6.57414987180822
H        -1.22380277275300    4.98142145506702    5.76428904061522
C        -2.50796206332204    6.49820608783272    6.50642261971264
H        -3.16926909049921    6.45887887700826    5.65314937167330
C        -2.77865733831850    7.40622576358483    7.55400384481845
C        -3.85940020114086    8.31049283556486    7.65110918358370
H        -4.58672241090191    8.35458858801347    6.85346374615307
C        -3.98807048709751    9.12173302501277    8.75180644735698
H        -4.82477030489666    9.80280715897274    8.80946494767108
C        -3.07119840700973    9.10781996952633    9.81821768924353
H        -3.21952655845151    9.76607179019316   10.66037337785205
C        -2.00309248892969    8.24732883363690    9.74998695345474
C        -1.87744698117751    7.40391072992212    8.62259665350850
C        -0.85192656363449    7.95240273297545   10.59599143074291
C        -1.01382893871313    9.55420736549131   12.30635620058686
C        -2.19665796691723    9.28800746405322   12.98992744772968
H        -2.60604697071473    8.28968212176264   12.94659868334387
C        -2.81762976414713   10.26356724804254   13.73766326436611
H        -3.72287425207444   10.00775056146895   14.26633764059925
C        -2.28739183062278   11.54685469145179   13.81209740687193
C        -1.12327476447940   11.80386505611843   13.09920962892962
H        -0.70138298306185   12.79159202917988   13.13310243142082
C        -0.46484415663949   10.84282273070596   12.34535082171791
C         0.82059275451302   11.15669796612060   11.58985404049807
C         0.71249426463769   10.61583284507449   10.17296703283700
C        -0.41049670838777   10.95105596715233    9.42100538508636
H        -1.18760468210143   11.55559186408519    9.86863767432875
C        -0.55670820626408   10.51427062558145    8.11781807097891
H        -1.44240249974542   10.77901535277877    7.55749807442827
C         0.42873572451146    9.73809207403005    7.53328538357362
H         0.31827757436042    9.39198749966348    6.51560786249796
C         1.55864677299649    9.41663432081294    8.26355315343863
H         2.34713262217600    8.83735385350426    7.80383592629643
C         1.70162346346748    9.84613427833225    9.57264114386175
H         2.59370340084816    9.57236040299735   10.11417654158275
C        -2.98421787060336   12.59892498420739   14.65922061996721
C        -2.27469961835643   13.95518113813614   14.62653775017802
H        -1.26302202236738   13.87627195590229   15.01712742656190
H        -2.81912684790243   14.66210471983704   15.24930675459643
H        -2.23974103558876   14.35815107315892   13.61656789149013
C        -3.01857804020880   12.11171194937611   16.11464514575838
H        -3.58166726423412   11.18759842245540   16.21039275823103
H        -3.48377685574046   12.86210826794082   16.75033439192828
H        -2.00768079958018   11.93123779284324   16.47339352940413
C        -4.41630312087415   12.79554100878876   14.14098051299553
H        -4.40076252035450   13.12468664468058   13.10350470862577
H        -4.92768269215793   13.55096983135791   14.73355875317204
H        -4.99005611223432   11.87458779435384   14.19888594570913
C         1.97556346076148   10.53898594159604   12.38291088230449
H         1.92317203062880   10.85829767580457   13.42162652968985
H         2.93882327205441   10.83750498909656   11.97710816097739
H         1.91077959171969    9.44936860352105   12.35990009029229
C         1.09091878526991   12.66378689218474   11.45484368714400
H         0.24215507184384   13.18547021538039   11.01834379299401
H         1.94833086183964   12.80810174574174   10.79977748074561
H         1.32945479618016   13.10461970982164   12.41966815425140

