110
CSD_code = VEXFEL | q = 0 | S = 0 | Stoichiometry = C53H47Cl2F4FeN3 | MND = 5
Fe        1.68520834115829   11.45694678532201    4.64777402456170
N         2.56038369924826   12.01198171092495    2.98783714312459
Cl       -0.21221170312024   11.16099887472866    3.71936801167015
N         1.21663525728786   10.42674493253657    6.24520534628889
Cl        1.35113297482072   13.38186540926065    5.42132807418411
N         2.18635887202327    9.85979150682941    4.07740626784572
F         7.86522928677271    9.01398985261375    1.74027880944951
C         2.53995587669697   15.44780032279360    1.62328223094537
H         1.91773122706029   16.09014164718411    1.01712818622835
F        -2.91317631480570   17.88233529363799    1.28637048660275
C         4.48588794169373   15.13603206378053    2.97247695738140
H         5.38771118089670   15.52666362092333    3.42120212726078
C         2.94735595782797   11.01592497259298    2.24082178636701
C         2.91935668514904   13.33837693125099    2.68693254479868
C         0.92005201868303   12.84650008819944    0.14576152490122
C         0.77390484769482   13.63987511496066    1.41895113762353
H         0.39995286018355   12.95504817715122    2.18883081980615
C         4.81204387022205   12.98140842488161    4.28488332904434
H         4.02333860773342   12.45583696563434    4.85327373482567
F         1.30487896152039   10.62003805599951   -3.28935497569869
C         3.66355031379488   11.14650890171001    0.93755497495795
H         3.88551354324006   12.18787924496459    0.72170327654083
H         3.04012785778890   10.74824882675762    0.13810910309090
H         4.59174593651220   10.57839519717816    0.96212782011351
C         1.90880914859259    8.76209323793383    4.82360868753611
C         5.57009257622530   13.82011507024528    5.28923368956971
C         1.68903709515207   13.31427492407169   -0.91445506373122
H         2.19365261700985   14.26541628381587   -0.83089583710186
C         5.64808453085872   11.92879588164225    3.60576588760454
C         6.95503877065918   13.84428055087456    5.36558762405901
H         7.54814655082093   13.24510207543583    4.69123327598758
C         2.70319355426142    9.72802840362898    2.83026421790232
C         2.10910174044229   14.16066211688582    1.90244248241747
C         4.07995390853602   13.84864628569919    3.27871584167653
C         3.73743212471394   15.93999310191023    2.12436747095563
C         1.85746187200096   11.58662583785573    8.24941519446052
C         5.59016599870498   10.61018114005336    4.04109911971735
H         4.95178016386204   10.34979460843627    4.87469257570556
C        -0.59586190923929   15.39858230570902    2.51424819004427
H        -0.16842351712229   15.06044278195877    3.44647223454924
F         7.45035981042279   16.16221505492666    8.09180080719993
C         7.23013141844622   11.27740203484441    1.90570125502543
H         7.87472134188183   11.51514787718407    1.07441007970068
C         6.33203853103056    9.62175660445081    3.42087062828615
H         6.28691732562223    8.59476152118476    3.74699279137378
C         1.37006995636500    9.14143735263898    6.10319712292407
C         2.17643601118968    7.48515071484808    4.34053901032148
H         1.94698012515132    6.61992784667387    4.94078997402604
C         2.98284097581203    8.47124194341556    2.30320794090746
H         3.38535218286474    8.38127734086206    1.30802016294202
C         0.27855965297839   11.61857196894910    0.02951854098642
H        -0.31102226298907   11.24827583070450    0.85464484397647
C         4.82278788354611   14.59545607651795    6.17326499410642
H         3.74420697385288   14.57541527377304    6.11313883202352
C         7.59490105405724   14.63260970891577    6.30788805232945
H         8.67090938350615   14.65961690113332    6.37673742893075
C        -0.78676051389593   15.19743204711005    0.13212031211453
H        -0.52155646483393   14.71373990524261   -0.79590845515330
C         7.14466432585098    9.97290665805279    2.35840788660479
C         0.84904826091518   11.00660891390995    7.47426545250657
C         6.47439840888631   12.25046104892533    2.53417317131070
H         6.51923530986639   13.27141476588877    2.18613719771674
C         1.81996657328003   12.57370177280649   -2.07563647688330
H         2.41201923026401   12.92644716746772   -2.90545711788037
C        -0.22892268833820   14.76869503446280    1.32743120234938
C         5.44711547171955   15.38691353133475    7.11734958893066
H         4.87917048563140   15.99204486602399    7.80581272144616
C        -0.49284755927575   11.07111155780876    7.87389740331992
C         1.10271869437629    8.12769591367859    7.16959689324331
H         0.86644869905506    8.61727237601864    8.11151504549541
H         1.96995522884245    7.48281967219090    7.30540454771312
H         0.26274945046739    7.49831956447438    6.87625595433215
C         0.40021204553497   10.86440416952594   -1.12419488198911
H        -0.09188037345542    9.91001124215521   -1.22567704097097
C        -0.78635715119273   11.68603557279662    9.07997129426356
H        -1.81103511573422   11.74630154339479    9.40962075738016
C         1.17086211606322   11.35577228896470   -2.16202375734970
C         4.17530590095538   17.33343291522016    1.79329373326987
H         5.17684360108314   17.52767605988258    2.16797258556290
H         3.49311710461186   18.05444085241307    2.24194412411646
H         4.16433985157323   17.49348788230480    0.71641365809409
C         2.71964629850412    7.34613783124426    3.07085891419552
H         2.92534457835468    6.36337859002264    2.67705684331919
C        -2.03259980960773   16.85527647183799    1.30261259906533
C        -0.15341036495110   12.92149770648549   11.16828019854864
H        -1.05779492618474   12.49627649667647   11.59690060802086
H        -0.33220803055395   13.98166477823482   10.98744433980900
H         0.65571881972459   12.83580071081802   11.88991478317128
C        -1.49637742858224   16.44536476451792    2.51050396543383
H        -1.78762050516269   16.93910645834709    3.42388965866699
C        -1.69370776425614   16.24437026946762    0.11164644729790
H        -2.13480862219352   16.58462496345398   -0.81207446044901
C         1.51786929128602   12.18923666030769    9.44923798563886
H         2.29757686114009   12.63664166157000   10.04885566509684
C         6.83019840314713   15.39385489664964    7.17013524125239
C         3.29494882853319   11.54733723370591    7.80726941871650
H         3.78917058657663   12.47097976724201    8.11343550300697
H         3.33532289028265   11.49476958295246    6.71021688667771
C         0.20207301067623   12.24126358668699    9.88159564134630
C        -1.54934416633737   10.49233792093885    6.97227540760367
H        -1.36985059623057   10.86975806905652    5.96232616265676
H        -1.42501826634053    9.40571678134228    6.92799102396157
C         4.04340046523271   10.35273072069199    8.39745308605899
H         5.08943303348671   10.37638868106220    8.09844002777758
H         3.60617741448070    9.41680209875694    8.05642620090851
H         3.99413800060119   10.37704202578134    9.48360021681905
C        -2.98641007096951   10.80652710233560    7.36542637479124
H        -3.65955269281393   10.41064794415519    6.60865316130777
H        -3.14106923548493   11.88071934875302    7.42729813867731
H        -3.24638058346901   10.35316797574520    8.32017336265784

