83
CSD_code = VEXHAH | q = 0 | S = 0 | Stoichiometry = C37H39O5PW | MND = 6
W        12.36620352696735    1.61666251278874    9.18857653786871
P        11.59511151141109    3.14705397641761    7.33775499911282
O         9.61256688043193    2.24596073946333   10.56964538229466
O        11.19013054889010   -0.90088973327696    7.72358927539431
O        13.61844486144155    3.89540590177228   10.94921608692988
O        15.17717236112974    0.99826964830564    7.92519087024982
O        13.12851205469264   -0.31737874162860   11.51628459392867
C        10.00743991979260    3.53311802913595    7.38607287039963
C         8.71586171509676    3.67678371816992    7.59257991400748
C         8.18600501559059    4.90192147116626    8.21280021463305
C         8.74018207363455    6.13991616806228    7.89929181620133
C         8.25761608348838    7.28982008619078    8.49455614723031
C         7.22004473540262    7.21589790868382    9.40962615149559
C         6.66365663562530    5.98671961846318    9.72391329127556
C         7.13939854944679    4.83370634695159    9.12805058518287
C         7.76213746121873    2.62461554562390    7.19792004134334
C         6.53990711386632    2.95460911915518    6.61938674642141
C         5.65529549821160    1.95841752144473    6.25034963619981
C         5.97590139464828    0.62697424255018    6.45993664238840
C         7.18669071949302    0.29250175756514    7.04396779558681
C         8.07558714315711    1.28492347066894    7.40968412619291
C        12.12614188105154    4.04154431673901    5.81917469117887
C        12.61238398447489    5.35665356358876    5.94888958055436
C        12.52353853071375    6.19508673721411    4.84483337311007
C        12.02200270320666    5.76851631269458    3.62653280633843
C        11.74684585187400    4.41567775435228    3.48799523083732
C        11.81225833080303    3.52477444264985    4.54849063759194
C        13.34319152286700    5.85079321739925    7.20066203716143
C        14.07597542562278    7.18044173009144    6.96091035028553
C        12.40408162894403    6.07967181281443    8.39075718977211
C        14.42523403756224    4.82036161956049    7.55390028225280
C        11.83527246120693    6.69690867188943    2.43726855843641
C        12.78440111214459    6.26459218188733    1.31066579575759
C        12.12979880816605    8.16061864121474    2.77730429021401
C        10.38020037806942    6.60434100763725    1.95668428833349
C        11.64596297073027    2.02889048012196    4.27327011843435
C        11.76215895730620    1.70805779260489    2.77448484660110
C        10.28379621184968    1.50711647464124    4.74550143686639
C        12.77804607367296    1.26250034645071    4.96908007261873
C        10.60214654015789    2.00830132376831   10.05179892055526
C        11.59938642333175    0.04636614182347    8.21465464899150
C        13.15767401307683    3.11111952192318   10.25920776432161
C        14.14690227314940    1.24321313680619    8.35445401354849
C        12.85088945362834    0.39178938617631   10.66319561542359
H         9.53747608199929    6.18613357760863    7.17058919454242
H         8.68865785343526    8.24822484065801    8.24314395250811
H         6.84425758787864    8.11481109846448    9.87549083050558
H         5.85560860925389    5.92628485439352   10.43812457782934
H         6.71289322341941    3.87376898931990    9.38089376589118
H         6.29182909020300    3.99313552971671    6.45183781141488
H         4.71044220075991    2.22194611290235    5.79775335201571
H         5.28098956723927   -0.14813657700512    6.17286524181365
H         7.43829910836924   -0.74311051933140    7.21796723042918
H         9.01337986085812    1.03052403235521    7.88715926353966
H        12.83962475281410    7.21603765475795    4.94277687553352
H        11.45499799873823    4.05359017164320    2.51876610783007
H        13.38083051388011    8.00444708657134    6.81757169065032
H        14.67820131349774    7.41091706810158    7.83735476699044
H        14.74388726220219    7.11720869774849    6.10500542047832
H        11.90602651270135    5.16414915047950    8.70731982910286
H        12.97297375882475    6.45982996118895    9.23707052425897
H        11.64111702595170    6.81200545137762    8.13585831505027
H        15.12713532579771    4.72069519420939    6.72758971419165
H        14.97565586531906    5.14159664040054    8.43602873935519
H        14.00354183855462    3.83837727742096    7.76114592113108
H        12.56710938315843    5.25439086709883    0.97485328905326
H        12.68492067518021    6.93489036311873    0.45968065869306
H        13.81605492411587    6.29497515220995    1.65523180658515
H        13.17266200597489    8.29965108594642    3.05266833143255
H        11.93093148865769    8.78122867449269    1.90599174659425
H        11.49508839169547    8.50811121847820    3.58936257405477
H         9.70107246143254    6.88964224566949    2.75749971937442
H        10.22124843688349    7.27385288906852    1.11411084950748
H        10.12791978476101    5.59624102838320    1.64019683855720
H        12.66689477759362    2.13479428666443    2.34730660357784
H        11.80889374010899    0.62840308528586    2.64789282308079
H        10.89679651410429    2.06261965588824    2.21962256838450
H         9.48184632735804    2.15593054801649    4.39852860057588
H        10.11266496507193    0.50727699314222    4.35190526687836
H        10.23443801549041    1.45243525410653    5.82913106239072
H        12.75236223744506    1.39076985501045    6.05092911692287
H        12.68951587889635    0.19761307383196    4.76294927249457
H        13.74479926315037    1.60649150887135    4.60561547331253

