71
CSD_code = VEXJOZ | q = 0 | S = 0 | Stoichiometry = C27H34AuClN8 | MND = 2
H         2.33447837978117   12.01121852964801   14.01678825131437
H         2.58635977526959   10.25303715406950   16.13408002496228
H        -1.45631218814121   12.34321390943581   10.19490162334419
H        -1.44750799568326   15.62639972220578   12.90744570671338
H         0.15379857802379   10.00908714973973   12.68035080769918
H         0.79059314030919    9.26132970673079   10.45146176549143
H         1.47726860200466   10.86186324859775   10.74237793151794
H         0.06160965921120   10.68031449227016    9.70594951107183
H        -1.49756521424321    8.66353829722321   11.47080434087556
H        -2.31668351583501    9.84057523080172   12.50346114839743
H        -2.21592528016749   10.11173376334459   10.76348899034508
H         0.21598478070948   13.65117959601119   15.63842626477403
H         0.75136969358517   15.98982158278761   15.97544585705999
H        -0.05883758421262   16.46210351194269   14.48718680335440
H         1.40744097239297   15.48291454108700   14.41636439471484
H        -1.49224549799750   14.99174464525626   16.78086504732017
H        -2.26310968388965   15.38485076780313   15.24300161205167
H        -2.26067306721544   13.71919418659232   15.82386236857918
H        -0.44450706071515    6.12440759302587   17.64242491967675
H        -0.69832892223177    9.40496967804793   20.34649923943850
H         0.63598254442385    8.29212484234331   14.76891119308767
H         1.45867087205850    6.05480700864757   14.37027477576258
H         2.16336033765001    6.64119832618647   15.87932897412129
H         0.84170352720781    5.47229649849783   15.91064505347939
H        -1.54272402273890    6.24589382453921   15.38036716835798
H        -1.81502672832147    7.89010825540221   14.80307384542406
H        -0.97161371706598    6.72072910950000   13.77938874531056
H         0.26317631726708   11.92648156694736   17.71292137616844
H         1.02477780703378   12.78862133846310   19.86085438001762
H         0.61336605669544   11.28158439298363   20.67392039177423
H         1.91311033486811   11.31042916498089   19.48185004651239
H        -1.42645218531662   13.01809500267599   19.10897768045069
H        -1.83042075262367   11.48656406527730   19.88632331072771
H        -2.16764696989233   11.71735648785897   18.17033514779270
C        -0.45844574713625   10.91272521601688   15.24055453868082
C         1.59689270448723   11.50261903239439   14.60201241510817
C         1.72038357788170   10.64122706079875   15.63949525784876
C        -0.33132944820060   12.47580308554743   13.37533110259567
C        -0.62659110963409   11.91920710206408   12.12775004608788
C        -1.20593008882489   12.73093046202975   11.16845772365570
C        -1.49188044847753   14.06274911583642   11.44725851012020
C        -1.20219536051868   14.59521760360705   12.70162255203043
C        -0.61945987671437   13.80866542533590   13.67995246982434
C        -0.35763965390363   10.46435966229891   11.82634973400120
C         0.54918018341305   10.31072053062795   10.60351203491183
C        -1.68189173960536    9.72382045015892   11.62648666023013
C        -0.34911291436592   14.38185520908167   15.05087565665633
C         0.48904457458772   15.65953867502161   14.97308883661980
C        -1.67642075432091   14.63674897768195   15.76970534237805
C         0.10790478726858    9.40414458589721   17.06818302964284
C         0.00705086400808    8.03788196902335   16.79298626826784
C        -0.34556443213552    7.18421253408378   17.82359478580057
C        -0.59050827331398    7.68332727415867   19.10112402976378
C        -0.48975023516306    9.04720660633354   19.35183587207575
C        -0.14424550816449    9.92572856161618   18.34006971792919
C         0.22931949817474    7.49597684872190   15.40077971057038
C         1.23552933113816    6.34346388019685   15.39472926961952
C        -1.11077614308785    7.05932592817457   14.80330416281748
C        -0.07244483092501   11.40830137443981   18.61679741366001
C         0.93280728277820   11.71302421942146   19.72956890306645
C        -1.46305947775879   11.94023226345165   18.97003749251716
N         0.25339024948928   11.65407263349129   14.37551234869593
N         0.44842216171204   10.29318860660881   16.01411520302921
N        -2.06395972927579   14.81361217286812   10.44858116874117
N        -2.41184339260184   15.94979454345120   10.42986846046997
N        -2.79489028363819   16.97940183920039   10.19568377255680
N        -0.93685427550394    6.86728870236107   20.15100713483668
N        -1.09980072197574    5.69141406507101   20.20465416380365
N        -1.29240523757770    4.61843421838342   20.47523068485111
Cl       -4.66933419460365   10.60568910961720   15.48040595961622
Au       -2.43656232971025   10.76690326400035   15.35251886923202

