99
CSD_code = VEXJUF | q = 0 | S = 0 | Stoichiometry = C43H46AgClN8 | MND = 2
C         8.66405736837211    3.89578037027857    2.03880904483459
C        10.32185249453714    3.57152304652335    3.51127566042224
C        10.62331223733823    4.67871626508450    2.79352406248866
C         8.43806184493860    1.96557567976889    3.52033923323895
C         7.54815614248448    2.11279273193981    4.58932576799655
C         6.89660658356089    0.98622047359936    5.05998445065264
C         7.12466387604185   -0.25574144229240    4.48251836436884
C         8.00391021033318   -0.38435260772142    3.41718100229260
C         8.67290565058926    0.72484166262597    2.92207965009147
C         7.24406957835052    3.46805260531437    5.17979327486676
C         7.30849021593510    3.45794302181021    6.70757855616078
C         5.86411016340822    3.91784212919808    4.69182590391455
C         9.59476798283869    0.58712914794576    1.73381993062956
C        10.61402147255862   -0.53809663755514    1.92279216078941
C         8.75766919054101    0.36343877112057    0.47165065558749
C         6.27416023401828   -2.60036696047205    4.48933483268239
C         5.55207762763626   -3.28597656190517    5.44902374215024
C         5.05896407071897   -4.65102981344840    5.46938793978793
C         4.36000343853608   -5.10762876837590    6.58585587146682
C         3.88414415958979   -6.40341958500393    6.62713612504903
C         4.09829001361177   -7.25872380512500    5.55804040189252
C         4.79114847825724   -6.81116507559959    4.44512982452342
C         5.27031281362402   -5.51578753001968    4.39739057141084
C         9.52400210162023    5.90727118361384    0.94792863933135
C         8.87683837061875    7.09694328779732    1.29190131752314
C         8.82800263140625    8.11735812302060    0.35422694315085
C         9.41148983423041    7.95247357831381   -0.89356670216748
C        10.04026790772991    6.75914522814984   -1.22317061123748
C        10.10661854691065    5.72143293158117   -0.30995384129711
C         8.20049879434044    7.26482479978962    2.63172518790905
C         8.60015192786953    8.57127877087805    3.32029092806760
C         6.68339314977294    7.18704587005766    2.44095381313749
C        10.73584162618334    4.40620953646750   -0.69994266275965
C        12.11066114580470    4.59402672919147   -1.34260278373450
C         9.78442841602101    3.66801977926538   -1.64578063792441
C         8.66061368480607   10.11300970557638   -1.88885125787141
C         9.07423742012300   10.75746508314989   -3.04031563578307
C         8.65863979510612   12.02108454570737   -3.62118998721317
C         7.67625171575630   12.80751357882128   -3.02277591337539
C         7.30432545289198   14.00904382204923   -3.59535616527034
C         7.90506647187334   14.43972997519527   -4.76692756297684
C         8.88176315462594   13.66159159101266   -5.36769816475410
C         9.25796680321172   12.45971379347717   -4.80099036350320
N         9.12304867185774    3.11007502681987    3.03293556024353
N         9.59751490748724    4.85808979242487    1.90209571268396
N         6.45400953325893   -1.36066860731952    5.01133021777441
N         5.87460986349309   -1.30194843108670    6.21848715446832
N         5.34866166772140   -2.42481897579333    6.48269736239090
N         9.39710971642162    8.97387402542280   -1.84578667076938
N        10.20998998334967    8.93387882447795   -2.91075663975779
N        10.02933112756091    9.97463314922830   -3.61169529354075
Cl        4.97962933327929    3.41567529878838   -0.21581328449174
Ag        6.87773729485949    3.66481323083266    0.94429707581685
H        10.84672616592626    3.08216539626547    4.30542814948932
H        11.46275458586290    5.34119021819921    2.83934681873004
H         6.19883432083211    1.04389653753477    5.87840424712074
H         8.17644195189317   -1.34950431327060    2.97076161765769
H         7.98388418163532    4.19016501575428    4.81975636199888
H         7.19411827377115    4.47075876351609    7.08685869667212
H         8.26536372653261    3.06817134211692    7.04817699011517
H         6.51747998739494    2.84735986764446    7.13235644667744
H         5.64204699061052    4.91737684886455    5.05708961492878
H         5.83208257570101    3.92924960433710    3.59673860268338
H         5.09430944035791    3.23812707539722    5.04691106117236
H        10.15225703838285    1.52018949991734    1.60744635868055
H        11.33821180862395   -0.51783759811650    1.11185780647932
H        11.14678979449360   -0.41931415247066    2.86399345032788
H        10.13523924166083   -1.51325456368367    1.91852302239366
H         9.40035296518018    0.31746817773139   -0.40384227807620
H         8.19750548545554   -0.56538373112146    0.54010035427236
H         8.04326331053364    1.18372403242045    0.33912024122743
H         6.62642636888577   -2.88448467751611    3.52210926781855
H         4.20223923931708   -4.42785386457376    7.40860746671501
H         3.34329249108286   -6.75013586934925    7.49547894750664
H         3.72574217857986   -8.27197541573586    5.59071442179743
H         4.95814394155857   -7.47575572751781    3.60981190624329
H         5.80784489112291   -5.17489332759696    3.52488666482953
H         8.33700967598457    9.04281797250376    0.60489829432826
H        10.47006878412044    6.66797610442180   -2.20649563561479
H         8.50068152691398    6.44095814120934    3.28631403808449
H         8.20182901676017    8.59016558707184    4.33194249914944
H         9.68310791955028    8.66119614468737    3.37426617748323
H         8.20841677296788    9.43559320155792    2.79142442626108
H         6.17879824782286    7.24910507400968    3.40176722275848
H         6.33204413185392    8.00020249864391    1.81122041175705
H         6.40846466853607    6.24089475364664    1.96137557707865
H        10.86797613962091    3.79212546058757    0.19662593497933
H        12.57521534549645    3.62446522495055   -1.50647115499038
H        12.75869992667583    5.18207127598728   -0.69623063343383
H        12.03307697453124    5.09722373979219   -2.30162577369651
H        10.18817207948782    2.69132646091214   -1.90043745881011
H         9.64141231843789    4.23541863449139   -2.56137742581534
H         8.80628942902347    3.53057895197576   -1.17175375747106
H         7.92218160434493   10.36056779884063   -1.15830770536737
H         7.20162426668326   12.47900214615670   -2.10995636832689
H         6.54178356110284   14.61349450841350   -3.12580186346638
H         7.61148977832422   15.37983240448535   -5.21026169781553
H         9.35061705638360   13.99503944867018   -6.28187925136904
H        10.01623292196956   11.84084296373233   -5.25476485466412

