71
CSD_code = VEXKOA | q = 0 | S = 0 | Stoichiometry = C32H37NZr | MND = 12
Zr        3.12402311290816    8.99381919250161    5.51108871563724
C         2.37534648031908    8.95558135723189    3.11236257110920
C         3.46782914055323    9.85513020357798    3.21270895144305
H         3.44781670907262   10.90288634296255    2.93717707674560
C         4.63559516806640    9.10606290883447    3.48502489206027
H         5.65067801416009    9.48334698760594    3.46103114130391
C         4.26842944273590    7.75134148492231    3.56966999486962
H         4.94492420718633    6.91034722851680    3.64957204910607
C         2.87663940169382    7.65638334045958    3.35090837421622
H         2.32455722993070    6.72813550597572    3.28365308141377
C         0.96866379291466    9.36119132690536    2.72770444018090
C         1.00544969569143   10.12470463454511    1.39381204357444
H         1.56571021425726   11.05180355361902    1.48601921272210
H        -0.00340442124762   10.36742583103181    1.06483715809844
H         1.47958832464992    9.51407078908629    0.62875042489216
C         0.06815897133531    8.13242404996048    2.56340748830685
H         0.45922592180332    7.48320792144553    1.78307361765658
H        -0.93778432416221    8.43442821158772    2.27904790826200
H         0.00952393524836    7.56890180140630    3.49375480510524
C         0.39806576291721   10.29515696821217    3.82534746480583
H         1.12980798027384   11.08980374579469    4.02094636297983
H        -0.52153350399084   10.76414754991486    3.47563812737950
C         0.17512766827550    9.51622811791449    5.12674693894179
C        -1.22569757529761    9.33206030718978    5.60989091090381
C        -2.36270364306969    9.50154244487785    4.82457811881532
H        -2.28476783429254    9.78283098296441    3.78551875363801
C        -3.62319607704536    9.29035020698513    5.35585548994800
H        -4.49468109387876    9.42196419706798    4.73020611011798
C        -3.77448936013421    8.91209902700815    6.67837567250922
H        -4.76130292659963    8.75410143162489    7.08829487886336
C        -2.65094489060637    8.73216397498661    7.46955788870518
H        -2.75871621490520    8.43108262761134    8.50164564225511
C        -1.39393388632526    8.93629356209841    6.93809596989405
H        -0.50502807522421    8.79006897839897    7.53520972937448
C         3.35941207608073    6.99488364253915    6.40877158816872
C         2.25685974336519    6.28174104054077    6.90801472489658
H         1.26595351798090    6.73513402146227    6.85543055495407
C         2.37753591884826    5.01451654664886    7.46218809445818
H         1.50195836733144    4.49962451491586    7.83610220958661
C         3.61728282025077    4.40358276839862    7.53821112509834
H         3.71641329172461    3.41698916600441    7.96919980562569
C         4.72998283538911    5.06904601150918    7.05379119926563
H         5.70335534860039    4.59788564312534    7.10593051507071
C         4.59599078933106    6.33509420426245    6.50220461442178
H         5.50148333910367    6.82423388472947    6.13450577517345
C         4.33348263859922    9.60102690826294    7.61102458758750
C         5.04875351798023   10.23822314212171    6.55954947795338
C         4.20774350262890   11.23819896882583    5.99773712432718
C         2.96501212413009   11.20942820616761    6.69418318556518
C         3.05036966110253   10.20295716661470    7.69482587299398
C         4.90541735294506    8.67043330327213    8.64593446046702
H         5.14806438416797    9.23351688639471    9.55157992895074
H         5.81885430139503    8.19656893190997    8.29328304226342
H         4.19293663727544    7.89115965396062    8.91849308438857
C         6.51257166900248   10.02599703454410    6.27072841954563
H         6.85002667812510   10.66775673576892    5.45913508086463
H         6.73245672835976    8.98842790182419    6.00510458454511
H         7.10722249523316   10.27261112325314    7.15308759910896
C         4.65718881064863   12.32657770359789    5.05668527581705
H         5.16117739255218   13.11745784010861    5.61930278789745
H         3.81439690359723   12.78437641249188    4.53895178864351
H         5.35924086786814   11.95885427698206    4.30839167084672
C         1.84724034138542   12.21292961304738    6.57873055785261
H         1.88706467053731   12.91503897583011    7.41540924608199
H         0.87049156566176   11.72524019241184    6.59951366501095
H         1.92491081170621   12.79426583567868    5.66070745401516
C         2.03035542808745    9.88113717083146    8.75049197352940
H         1.83887390284654    8.80554941908810    8.78326887321499
H         1.09438023337237   10.40026312067726    8.55598164698089
H         2.39314308065842   10.18923583555288    9.73412768997430
N         1.12681890488103    9.02804940184341    5.78250870899903

