70
CSD_code = VEXSOG | q = 0 | S = 0 | Stoichiometry = C34H28O7W | MND = 6
W        -0.73317788919300    0.49254592304738    3.94668019247690
C         0.56403343910506    1.59217054971532    2.88793295872930
O         1.43793281536712    2.03261729246212    2.29843498096865
C        -1.65980629377480   -0.12241316737554    2.27779780443855
O        -2.20878141571070   -0.52637572827733    1.36013895670029
C         0.57743011050108   -1.01253955493020    3.78484381861098
O         1.31604870091955   -1.88457399044787    3.70275809954840
C        -1.84362549740150   -0.79944828890255    4.99294668187395
O        -2.29111712850222   -1.69369987102391    5.54962239634324
C         0.12862086252863    1.08913417291250    5.64731880060944
O         0.59516771020919    1.42070846007880    6.63998903792988
C        -2.13624856577629    2.08540023731874    4.08286755377880
C        -3.22250000563757    2.27974729593066    4.95132339726484
C        -3.61687016190449    1.24661207836800    5.93129515760160
C        -2.93437638899149    1.12048924824059    7.13769917921427
C        -3.29516809775044    0.13848697955602    8.04241130704289
C        -4.33546426702851   -0.72741687486318    7.75046644869303
C        -5.01651677932366   -0.60986932857372    6.55059359497429
C        -4.65954348136475    0.37092355517752    5.64335033544182
C        -3.82420294920801    3.52159034288247    4.75954802023011
O        -4.82896273574500    4.12186596689680    5.39046113464044
C        -5.49785578731145    3.48905738789243    6.47420438256404
C        -6.50345973085610    4.48293654573334    7.03172934379530
C        -3.18685982785701    4.22621536580722    3.66973045710625
C        -3.62516985125048    5.43562304260820    3.25072215523833
C        -3.22117739590125    6.27050819532448    2.14730271256071
C        -4.01714825354856    7.38859387996663    1.85738653542825
C        -3.71607391990688    8.22200530246846    0.80083043229112
C        -2.60667434367414    7.96615707084050    0.00906841953671
C        -1.80216539028668    6.87377660774828    0.29105971907398
C        -2.09962948864294    6.03334606074706    1.34579968696352
C        -2.10919037371704    3.28845704405644    3.14684512180752
O        -0.81574032404574    3.85793997706353    3.05427957592558
C        -0.35001450250232    4.46123744647228    4.24744703986849
C         1.01923309298466    5.05868470034785    3.96960126272745
C        -2.51750173371987    2.74437713822913    1.78611507247071
C        -3.81689256683200    2.29189568735229    1.58458191802087
C        -1.61010196095968    2.66459397771856    0.73913255447070
C        -4.19496883307591    1.77170184269969    0.36321390235539
C        -1.99793181942579    2.14579826715906   -0.48293841225184
C        -3.29073094410184    1.68714266360110   -0.68947909940283
C        -3.70489462629099    1.09345506478986   -2.00026236878637
H        -2.12611090528112    1.80153903580459    7.36493428194964
H        -2.75837716026856    0.04520402629701    8.97487990341245
H        -4.61104188138189   -1.49800200513654    8.45458021034495
H        -5.82239523237621   -1.28992986420789    6.31703787966616
H        -5.17725220179911    0.45324660052167    4.69714952984462
H        -4.77188200862201    3.20045980375280    7.24212958206166
H        -6.00526993081350    2.58450495193226    6.12003182393102
H        -7.03865697611084    4.03177467555399    7.86173322577477
H        -5.99342479901466    5.37666078193098    7.38104248561458
H        -7.21551327603667    4.76719336331238    6.26161381535606
H        -4.44936044321158    5.83943516549894    3.83089871543590
H        -4.88481257289310    7.59259851419876    2.46923216020162
H        -4.34439203340776    9.07554400950059    0.59165984239394
H        -2.36922027311518    8.61854662188157   -0.81815238169665
H        -0.93196174114299    6.67531504029775   -0.31717443035300
H        -1.45183358006417    5.20308991213050    1.56285099667686
H        -0.28839216696105    3.71031891410557    5.04966440816051
H        -1.04868893592742    5.25003511183460    4.56464048996876
H         1.40947007310010    5.52223549147947    4.87119391525235
H         1.70466300422258    4.28208205133243    3.64347409291216
H         0.94373987657752    5.80836397153779    3.18609736684394
H        -4.53797943389867    2.34485280193088    2.38821670932228
H        -0.60262477389887    3.02043299460772    0.87802644259031
H        -5.20715273086855    1.41960983332201    0.22357012381755
H        -1.27765686792004    2.09193952509089   -1.28667303950328
H        -2.99771629873316    1.34964979150224   -2.78495532226871
H        -3.74453338089054    0.00731111028187   -1.91742960832674
H        -4.69464674966463    1.44292920289313   -2.28752348826064

