62
CSD_code = VEXTEA | q = 1 | S = 0 | Stoichiometry = C25H29ClN3O2RuS(1+) | MND = 9
Ru       10.38283557996257    7.85483979991302    8.49707341265958
Cl       11.38307107066933    6.36011731073265    7.01142551378197
S         9.21433963350188    5.97362810312421    9.29694158133916
O         7.71743845303059   11.42592267337083    5.75962126108890
H         7.53907772566211   12.32436558026865    5.44224682759046
O         9.27511463092414   13.35304225963534    4.81570425114756
N         8.88259301363104    7.93326153331114    7.16862105667314
N         7.98096798880215    6.89668274345823    7.19296048536759
H         7.27689367442676    6.88993680452760    6.45508422593380
N         7.17553346375962    4.87453254637514    7.93256278025980
H         6.63292626206574    4.86194674021832    7.07530287885748
C         8.05087434272519    5.87375647764186    8.08020308542580
C         8.61927176163693    8.88205953726864    6.33281659711976
H         7.65145096041562    8.90298590764139    5.83195443938764
C         9.54548202139035    9.91920088171357    5.94916100457972
C        10.91378557619035    9.65773581805759    5.77447868852589
H        11.28996459583701    8.66130088462000    5.96909728556621
C        11.73913826283919   10.63584236072791    5.27006231736778
H        12.78362500373051   10.42550109713686    5.10300932171168
C        11.24375945006243   11.89591190927263    4.94589362782124
H        11.91414858040124   12.64344066840616    4.55444541580757
C         9.89724349169750   12.17335862228545    5.10634972681690
C         9.03597711605941   11.17476569321081    5.59852546506546
C        10.03468317252130   14.39019274856735    4.23260900230146
H        10.47670290532029   14.07234583863073    3.28489078320141
H        10.82024766153552   14.73577401683341    4.90995414493623
H         9.33174412656767   15.20073725365040    4.05126348857495
C         7.02347726387270    3.69781896584268    8.69886005170510
C         6.52120667573476    2.57618783218496    8.04363623315468
H         6.28596800348738    2.62722480836860    6.99022193005615
C         6.33571141678996    1.39595897909305    8.73725934603279
H         5.95395312436493    0.52861842101286    8.22211629874866
C         6.63916747277588    1.32873918737389   10.08786665087899
H         6.49528831496458    0.40683351330142   10.62849383503631
C         7.11775765275110    2.45091801541414   10.74171328334567
H         7.34115092440815    2.40839132528404   11.79608754438104
C         7.30789172891238    3.63875863942933   10.05665935631543
H         7.65838853685633    4.51175096512929   10.58021616304013
C        10.11696674525222    9.08401709066265   10.44441894982376
C        11.14520968069248    8.12265246662525   10.61874644492885
H        11.06438605796495    7.39752176561374   11.42392102857572
C        12.28359321596809    8.12351191291992    9.80203280410114
H        13.06908288704860    7.39531517597456    9.97768209375321
C        12.52433971549428    9.18762728574792    8.88554975485188
C        11.51859891031093   10.13875281738950    8.71789786842084
H        11.67873592013678   10.98462969123437    8.06218819347466
C        10.29481352463497   10.03574385185688    9.42352900377697
H         9.55207529023883   10.81175993929110    9.27989177440922
C         8.92370585096575    9.12271771598556   11.36877008157247
H         8.92715030634655    8.20611652815912   11.96875310342064
C         9.05022674581093   10.32143354065840   12.31433385071060
H         9.97900221676017   10.26914263687215   12.87745246835909
H         8.22181978625261   10.32622470669761   13.01713695951769
H         9.03577897732581   11.25578495762533   11.75831248950698
C         7.60821026082566    9.17587076022175   10.58913726724976
H         7.49957402211922   10.11757916996209   10.05722630270363
H         6.77017214626081    9.07632132518867   11.27329487036054
H         7.56433217193084    8.35793110652482    9.86822187036489
C        13.82772485780178    9.26819853512547    8.16233224528248
H        13.94696349143663    8.40077374351782    7.51252181940131
H        14.65262841278849    9.26000881021516    8.87387544207314
H        13.88645716535072   10.16977800290390    7.55898395174080

