94
CSD_code = VEXTAV | q = 0 | S = 0 | Stoichiometry = C50H36IrN5OS | MND = 6
Ir        5.48604808417135    2.26199014336260   16.55108478180631
S         9.82156599385527    3.58096841918501   17.50881396243071
O         2.94529801057934    0.71082646486053   16.09087366515617
N         4.49617125589089    3.88406294275825   17.32902633713077
N         5.41646310529469    3.11850885034612   14.68590714938484
N         6.60532063281674    0.71575355090042   15.79420721948551
N         5.68107578744953    1.47871914816688   18.43903213117115
N         7.17236435284460    3.19920627877953   16.86833328676304
C         4.20634882393325    4.09237462260710   18.64186128542092
C         3.50178446595787    5.33528473165438   18.77179295368729
H         3.13655792709446    5.74122116928154   19.69436530256836
C         3.39974983887351    5.86748425911507   17.53019508087153
H         2.95283139644617    6.80024546147568   17.24800277776276
C         4.02453904800140    4.94770119265285   16.62380983858234
C         4.14109242833078    5.14838424828919   15.24611793028880
C         3.54123287798143    6.37675828181614   14.68198766056946
C         2.16509093402156    6.57927468758387   14.72968047564684
H         1.53364621096748    5.82439898598830   15.17569304348746
C         1.60722134855284    7.72628802551647   14.19986340299911
H         0.53634698519203    7.86721495443067   14.23892113089919
C         2.40391647447286    8.70581378783591   13.61691446012576
C         1.78415776722368    9.94032319696593   13.03748382967112
H         2.53796726376184   10.69666273367601   12.83424729168519
H         1.04374662029885   10.35492856836748   13.71909261029258
H         1.27767856481288    9.70118253342682   12.10206710524271
C         3.77691441596697    8.50177876829859   13.57518943692103
H         4.41456608471304    9.25265987781951   13.13083664420997
C         4.34089706120830    7.35190498395115   14.09616624654125
H         5.41124705012544    7.21035681831007   14.06568520967588
C         4.79444744876225    4.28484134532141   14.36339696235595
C         4.88999806780297    4.48720164501520   12.94642638085971
H         4.46431770727462    5.31461930912487   12.41384899916337
C         5.59007202034913    3.44332840025056   12.44089939018955
H         5.84507167076317    3.25513200126506   11.41668726044975
C         5.93054056041809    2.58998656543465   13.54269188126644
C         6.65567200641734    1.40097777457295   13.43031495935679
C         7.15116961564448    1.02701358930567   12.08843612123149
C         8.07250291061195    1.83228915017595   11.42564840825295
H         8.43193087833542    2.73025511482308   11.90632644024464
C         8.54134809393140    1.47724512817164   10.17576316180909
H         9.26337061271265    2.10843686251653    9.67762906736445
C         8.10022517871074    0.31708532764823    9.54933204372963
C         8.59627142636524   -0.04702178701766    8.18365081306929
H         8.03698977958324    0.50233347051883    7.42546007043982
H         8.46949141628764   -1.11000871540817    7.99348549701071
H         9.64772999003633    0.20941898436513    8.07346652875955
C         7.17717668731255   -0.48166906040544   10.21244413035070
H         6.82024794120355   -1.38679728581634    9.74178705599598
C         6.71054917626587   -0.13670276195886   11.46713830112471
H         5.98988563119499   -0.76588567634191   11.96946546423385
C         6.97042181014076    0.55173102497375   14.49386580638306
C         7.77913031525002   -0.62789190238490   14.38175461947545
H         8.21400870698730   -0.99007664210683   13.47125183042199
C         7.88813708620109   -1.15603946414210   15.62427677211342
H         8.41319611049838   -2.04260992593826   15.92022122012112
C         7.16098621065776   -0.29662420049825   16.51334055421137
C         7.05810870908111   -0.48777532836158   17.89294699187757
C         7.75818305075024   -1.65240101663657   18.47685671370346
C         9.14716583014322   -1.73370290588663   18.43831025713889
H         9.71150513630314   -0.93100905186737   17.98701683879304
C         9.79850917579813   -2.81857595476613   18.99111884769125
H        10.87770568725233   -2.86559477460208   18.96155262439790
C         9.08623512756251   -3.85334592147682   19.58870072126890
C         9.80862904272928   -5.02917628377367   20.17150214877948
H         9.12331514131704   -5.68469056898146   20.70285419184505
H        10.58287443002948   -4.69748326451655   20.86146651418809
H        10.29260801436814   -5.60299325796521   19.38132676625137
C         7.70092984024595   -3.76830145008378   19.62324753209706
H         7.12821517382598   -4.56173509236370   20.08230502882590
C         7.04245333131020   -2.68031120227726   19.07972370218444
H         5.96355473203580   -2.62833684733187   19.11120211116630
C         6.37608577740143    0.35739052474099   18.77101772713878
C         6.35912345390983    0.20239223770524   20.19706673368047
H         6.84652132195942   -0.58733684529150   20.73382142952917
C         5.65323096679429    1.24208790215776   20.70233082520260
H         5.45360119394724    1.46526279818901   21.73176878379903
C         5.23140717883706    2.04561282214331   19.59119333286981
C         4.52876794875106    3.24744867917331   19.70674341173285
C         4.12743593751101    3.67075037328333   21.06558012170079
C         3.21835892484948    2.91692352562502   21.80122771988243
H         2.79788737782136    2.02159228896696   21.36636411600155
C         2.84188818057667    3.31508955824858   23.06956171671369
H         2.12892938836443    2.72275964008252   23.62542033268014
C         3.36721971166473    4.46771388554742   23.64203354981447
C         2.97500771827005    4.87861417511871   25.02804654105885
H         3.58540616811288    4.34815021972942   25.75979398632432
H         1.93272854736155    4.63637712630614   25.22388767299299
H         3.12436349854790    5.94556986512306   25.17458966694029
C         4.28029219458465    5.21351965175665   22.90689291756735
H         4.70430768064045    6.10992849994453   23.33642356195039
C         4.65460012916215    4.82548123983467   21.63426432881900
H         5.37242693199482    5.40944938124296   21.07724162470612
C         3.88964480628620    1.33252449232407   16.25600606860112
C         8.30864266934096    3.33278492005749   17.14783084961736

