39
CSD_code = VEXWIE | q = 0 | S = 0 | Stoichiometry = C10H24O2P2Pd | MND = 4
Pd        0.78256205552285    2.39849897959639    0.26729517312277
P         2.99261698005183    2.22289505383726    0.54126543994670
P         0.65225184676462    3.96766543250553   -1.53551865469711
O        -1.26264759866467    2.39718780721300   -0.00364685765692
O        -3.11040306286438    1.34064403316076    0.57245395392736
C         0.04328635096384    2.05242907230037    2.93283145688991
C         0.29347096539369    1.09082059412258    1.76855203987450
C        -0.99516465753188    0.41749231561545    1.29588279779256
C        -1.89781593681984    1.44800618741836    0.58587380532862
C         3.77887899386100    1.14633849262323    1.80206491615768
C         3.87070905375492    1.66490384477522   -0.97149891635415
C         3.83126360815433    3.81944086677611    0.88268408361063
C        -0.82489605440601    5.04970200720961   -1.53675925240407
C         0.20331187713456    2.76592615489796   -2.85238090695150
C         1.84025884706354    5.04549472902814   -2.46275733395796
H        -0.70902986376426    2.80161081884892    2.66029638552650
H        -0.33152897762156    1.51094532076162    3.80590460539442
H         0.96950520205971    2.56599475273591    3.22193866555359
H         1.02683896055570    0.32612351870469    2.07154303488783
H        -0.76819702561180   -0.36625818868288    0.56161670664334
H        -1.53649842967035   -0.04726964979848    2.12788764750239
H         4.86225597634791    1.25677351617030    1.76648008171445
H         3.51384109834667    0.10874904963863    1.60674556864201
H         3.41808350147111    1.41864074239012    2.79229369699229
H         4.94956465286282    1.67111680814666   -0.82028832775923
H         3.61279898345629    2.32247626306288   -1.80034767020734
H         3.54366957063573    0.65464531102414   -1.21520878688512
H         3.56717346244767    4.53383951936350    0.10453378519783
H         4.91268858856373    3.69441152462179    0.91799089370204
H         3.47841854324242    4.20515963255456    1.83832994265619
H        -1.06269549218803    5.37167639493656   -2.55059623066177
H        -0.64440756304052    5.92036253617312   -0.90774727101907
H        -1.65164606246827    4.47795618406819   -1.11920137466511
H        -0.67356435433238    2.21876882784321   -2.50338026952045
H         1.02273153825017    2.05791675531446   -2.99812032102490
H        -0.02237668661883    3.26786420935492   -3.79274814706024
H         2.75047556816199    4.49738109104694   -2.69768794592581
H         1.38377160850102    5.39116849699468   -3.38843896773853
H         2.10174393203199    5.90880099364917   -1.85373744655686

