31
CSD_code = VEXXIH | q = 0 | S = 0 | Stoichiometry = C10H16Br2N2Ni | MND = 4
Ni        9.30486521826566   -0.81423903076218    1.52750906716658
Br        9.26233921604574   -0.58916156853989   -0.67594518097201
Br        9.35689915564693    0.06029658253713    3.56738794939763
N         8.06422009514747   -2.08517782053018    1.81157569836105
N        10.73199150735302   -2.72592248068626    1.85218362471795
C         6.79516645273612   -1.84064151590378    1.48264400735955
H         6.56892446259900   -0.85851269318317    1.08086465537176
C         5.80080545225667   -2.78567311067690    1.63953135116138
H         4.78788338166307   -2.54745179129425    1.35998062414808
C         6.13674458029110   -4.02914210140079    2.15302928711719
H         5.38768112070709   -4.79447163084898    2.28211671691580
C         7.45458801927122   -4.26858478495238    2.50007758051596
H         7.75661785794022   -5.21924640647632    2.91068691229934
C         8.40517144239523   -3.27285640526460    2.32590411949234
C         9.83876206532408   -3.45694404948384    2.75185856574815
H        10.07483174583125   -4.52669131392490    2.82283481654167
H         9.92877755365531   -3.02547443307516    3.75672038168811
C        11.98987156667982   -2.32482183911416    2.49495722392155
H        11.74300942752547   -1.93141604309259    3.48463259299011
H        12.67127083083954   -3.17401533326128    2.62814833590560
C        12.65714850610710   -1.21275804863515    1.69526886793711
H        13.44125445508336   -0.74488938263749    2.28398682213881
H        11.90845516062483   -0.44886593282672    1.45422073352014
H        13.08825303532915   -1.57802491234638    0.76703763054280
C        10.93202884852500   -3.46429685097708    0.59361064237582
H         9.93965540612482   -3.73931013143033    0.22325971073483
H        11.36751125367015   -2.77588459004906   -0.13251830767071
C        11.80259942662598   -4.71902990361317    0.66728670091498
H        11.75356171784282   -5.22887873494490   -0.29103716601509
H        11.45970153754022   -5.41058068183185    1.43396330125730
H        12.84290950035293   -4.47243306077364    0.86142273441608

