85
CSD_code = VEYHEN | q = 0 | S = 0 | Stoichiometry = C32H36Cl4N10O2Pd | MND = 4
Pd        5.98246266259236    0.00087142419189   -0.00175295240734
Cl        1.88978156733634    2.69590265333354    5.17375973495442
O         3.56484913813925    1.60967660487085   -0.50868769201366
N         3.45530017637080    2.67692565576047    3.15068920581710
Cl        7.39271445482833    1.83882140466319   -0.08788547193884
C         3.09096849508056    1.97344357406760    4.20190179102295
N         3.52418654308579    0.80110052541299    4.61838545442466
C         4.42812216895551    0.27841084453081    3.78427524670633
C         4.90595575377691    0.90011439961832    2.62583033517239
N         4.86116698537940    2.91739416332023    1.32322162849617
H         5.65778131434334    2.55251879365325    0.78562481824634
C         4.40639131793862    2.19505208532145    2.33497407059173
N         5.75513895298544    0.03434120855558    1.98375997711375
C         5.79217636225833   -1.04606899180079    2.73059683075120
H         6.35626733488502   -1.92927513948818    2.49624789629522
N         5.02092577448547   -0.94738616959196    3.83786050854499
C         4.20450735147838    4.08252979221806    0.80248564399842
H         4.82234013781086    4.96937229328309    0.98398394954689
H         3.26316623270082    4.20081089144628    1.35037381917378
C         3.93568699603812    3.96371860703027   -0.67765549814410
C         3.57125830640557    2.74653173512122   -1.27677282814445
C         3.23969749112637    2.72644883160272   -2.63092255286446
H         2.94346047242903    1.79941782056458   -3.09760457416623
C         3.30011054859979    3.87940190585792   -3.39396591778503
H         3.03648106047048    3.84038634473002   -4.44065887665113
C         3.69511046002328    5.07149107645213   -2.81663368145096
H         3.75339532561972    5.97212969381730   -3.40758384783904
C         4.00533346412355    5.10136019506527   -1.46828406533767
H         4.29377801183404    6.03481937815458   -1.00852413160667
C         2.64743301432264    0.59492783083584   -0.88394524354824
H         2.51559250524790   -0.03053797019846   -0.00099249088199
H         3.03681269555854   -0.02522443722811   -1.69831427035558
H         1.68388540504230    1.02617146083821   -1.17006064451073
C         4.82528954194775   -1.94316857175472    4.87316095091665
H         3.95376863508051   -1.59701398020998    5.43918339785869
C         6.04781698875867   -1.98203213918326    5.78735500498707
H         6.22675335798252   -1.00216010783337    6.22375692833921
H         6.92848524885785   -2.28610676011361    5.22568300971038
H         5.88312076960686   -2.69419668182333    6.59072829450017
C         4.54211048368202   -3.30728839168289    4.25131284620508
H         3.77110347771625   -3.22583291573921    3.48917175911095
H         4.19965408171455   -3.99450072396268    5.01972419047642
H         5.43809747055246   -3.72114159971441    3.79372858330376
Cl       10.08837865451855   -2.66666522164837   -5.17923012671423
O         8.39627710726536   -1.61248330606621    0.52875960835179
N         8.52390529170896   -2.65837045465475   -3.15533558781456
Cl        4.57850161533234   -1.84169016921654    0.08203383014278
C         8.88286129794343   -1.95233639210243   -4.20677191690272
N         8.44111445886620   -0.78326096556001   -4.62350541012074
C         7.53437354668605   -0.26634742796407   -3.78881953144834
C         7.06252946554482   -0.89081391144014   -2.62948050376522
N         7.12011174374702   -2.90734599103556   -1.32708104248266
H         6.32063619278656   -2.54804078147255   -0.79011363806658
C         7.57035469793493   -2.18249381216537   -2.33897658385669
N         6.20721249332706   -0.03152894253835   -1.98723927927115
C         6.16105039865541    1.04813876190745   -2.73457951062751
H         5.59025673867004    1.92698945293340   -2.50008156557836
N         6.93194766753332    0.95477241792561   -3.84254465758602
C         7.77895307831142   -4.07369738134375   -0.81178059618197
H         7.16966768106552   -4.96302233574855   -1.00974284014779
H         8.72699829946522   -4.17974996881107   -1.35057653807818
C         8.03013764648796   -3.96863348659128    0.67225075691841
C         8.38381657226966   -2.75593807361469    1.28671471041526
C         8.69922868163702   -2.74761796242513    2.64483542918574
H         8.98766794398209   -1.82433031395262    3.12371956300644
C         8.63321116116748   -3.90787653148513    3.39632219037006
H         8.88430884747691   -3.87791551753398    4.44639133039096
C         8.24878259233672   -5.09570041042183    2.80336384200273
H         8.18629357811660   -6.00197597014815    3.38517749318664
C         7.95464686708497   -5.11386167006341    1.45121081603974
H         7.67460295606247   -6.04381109458826    0.97932125756698
C         9.30315037447193   -0.59669833059098    0.92635881371235
H         9.44503890403239    0.03700732054913    0.05091291596464
H         8.89856109682738    0.01445617573755    1.74023812697103
H        10.26442569283533   -1.02578867282952    1.22313370653205
C         7.11722133218908    1.95073103938425   -4.87957359450690
H         7.99275927423932    1.61319008044191   -5.44458732786140
C         5.89466959170378    1.97402022291633   -5.79432641828169
H         5.72724999113206    0.99139200565800   -6.22909581914059
H         5.01029480646969    2.26875392528622   -5.23344604253490
H         6.05141686820001    2.68667695756125   -6.59885528658864
C         7.38483369894935    3.31920045217000   -4.26041120617629
H         8.15576845417198    3.24774738598812   -3.49718645303438
H         7.72080669710844    4.00831476629290   -5.02999028579191
H         6.48383740451338    3.72444751728945   -3.80494376481079

