41
CSD_code = VEYMOC | q = 0 | S = 0 | Stoichiometry = C13H16BN7O3Ru | MND = 6
Ru        7.35326311031285    1.17734234141938    5.54533028334357
O         9.10678147545243    3.39649636433717    5.56509607480692
O         5.11829819765510    1.92202008500591    4.06668702550951
O         8.42871852135423   -1.17323610084507    4.44621188825900
N         8.40622833295005    2.46203549263892    5.56757675508183
N         5.96635986916689   -0.37702577729663    5.40812934570338
N         5.31742465709294   -0.84822380297066    6.47953822331482
N         7.97849027362759    0.03719735142236    7.33734278153613
N         7.06643364205824   -0.45528954675277    8.17633060178448
N         5.84687350820535    2.00238540614158    6.96582791386351
N         5.24692140899457    1.20404932651383    7.84923918016142
C         5.52419738674956   -1.04425797869517    4.34625513057353
C         4.56604473492784   -1.97218160474914    4.73890027862915
C         4.46699515952729   -1.81009870448217    6.10556047518351
C         9.17731279696052   -0.26169636647269    7.81808909973920
C         9.04103044785101   -0.97099048276090    9.00942393322975
C         7.67744250809657   -1.07153027689177    9.19617628235159
C         5.36855048656761    3.22640625076408    7.13157309470933
C         4.42680751800421    3.22619277883915    8.15922070890379
C         4.38165806853052    1.91482582904078    8.58507695942315
C         6.31911442561981    1.98418288146858    3.97379483182878
C         6.96263107923511    2.65756041061508    2.77417625649458
C         8.61193898218206    0.01980683148218    4.43061303114159
C         9.84670543689986    0.58763959630299    3.74595503731752
B         5.56374159749305   -0.29762677040743    7.89233912169653
H         4.90971192544318   -0.85742698359756    8.70113526529063
H         5.90295043601191   -0.84629938922411    3.36019887680326
H         4.02664403609767   -2.65705853480106    4.11856871465076
H         3.85125429037502   -2.31493035572614    6.82207356884077
H        10.07265421687758    0.03487584532710    7.30390501430961
H         9.81958042579395   -1.35305091565970    9.63625408961914
H         7.11570447893793   -1.53686439647294    9.98017227039654
H         5.70822276792715    4.04250884828419    6.52092826639063
H         3.86445669784218    4.05697990735344    8.53163420517597
H         3.79617071117273    1.45246335310609    9.35340679168280
H         7.73701818546088    3.35748770144496    3.08398468236780
H         7.41990908351411    1.89047249269679    2.15050626647839
H         6.20412664019609    3.18042731170508    2.19145948559544
H        10.32790962516487   -0.18420816956817    3.14521387821429
H         9.60152028023237    1.44484659731323    3.12376619566989
H        10.54560257343654    0.91879315415071    4.51532811392739

