61
CSD_code = VEYSAU | q = 0 | S = 0 | Stoichiometry = C22H16Cl2F16N2O2Pd | MND = 4
Pd        5.77878983946228   -0.12214779036165    6.93219512106750
Cl        4.77432863259971   -2.07449211474785    7.18746906577049
Cl        6.44342154188358   -0.76855309267980    4.92477524684632
F         2.15819385578019    1.56003520674392   16.52993974295713
F         3.56749907117935    0.08086600740773   15.83089318628837
F         0.86880247453180    1.19910688107601   13.89391144880850
F         2.10379412809480   -0.56758988818648   13.73542519634059
F        -0.29575930946708    0.44086278213723   16.07446674619089
F         1.17650472534964   -1.06842095918952   16.54907156132916
F        -0.81809900987118   -1.02029640410502   13.65656953077628
F         0.44755600758207   -2.58506115932528   14.46098210350133
F        12.18450358971389    6.26705600541470    5.85693758067548
F        11.67475915307273    8.15450459193175    4.96116942801087
F        11.06201312530252    4.84803786476237    4.06753972667932
F         9.64095900561873    6.35153589676564    3.48038793867053
F        13.15199410662045    6.51095613173705    3.17571999317004
F        11.76640367966114    5.74029226055396    1.71220002056233
F        11.58994046345866    8.05922042983031    0.87126942337109
F        10.49999432805878    8.58182917945314    2.65817129049599
O         3.69380415337639    1.55578790813943   13.34223381009756
O         9.38448733949706    5.73733773020978    6.16997354925967
N         5.23683284786668    0.59091940472383    8.73781350337760
N         6.63524819131464    1.69644292165362    6.82470280423153
C         5.65721965559124    1.85208953626785    8.98622155485346
C         5.36926303612404    2.47342217513432   10.19973144843628
H         5.71094713977822    3.47766074201031   10.39270645154023
C         4.64350819547547    1.79731697353924   11.16932792141620
C         4.21849752498021    0.50089629519092   10.88990081747121
H         3.65510961051058   -0.05486233350129   11.61954171700016
C         4.53731503922636   -0.05844330322758    9.66714654303409
H         4.22855883594828   -1.06511021927599    9.40456593498701
C         6.42552340716631    2.47614919731225    7.90903660245770
C         6.92989682101545    3.77497166177676    7.96258728077532
H         6.75351718070575    4.39134000636594    8.82930449113395
C         7.65979393194435    4.27853412390420    6.89795754831312
C         7.87341587562218    3.45154016749777    5.79646532172587
H         8.45078269847494    3.80186524314673    4.95831140496454
C         7.34553718392094    2.17567002286654    5.80364692054221
H         7.48184743074344    1.49708357872396    4.96775002478148
C         4.33389282642309    2.46768055815344   12.47863813797688
H         5.26639875221626    2.83349623172554   12.93781862217271
H         3.68193744597896    3.33903646715519   12.30106869928528
C         3.37387458317161    2.09561318745341   14.58766731179097
H         2.68112729934103    2.94758088484188   14.50235668662473
H         4.27008598758887    2.41377442820998   15.14239080179449
C         2.68325947210803    1.00709040146564   15.41190682838784
C         1.55517754835796    0.28602982079510   14.61306135179403
C         0.54158856609080   -0.46616181433523   15.52769225279209
C        -0.31058490903397   -1.53112823149237   14.78731100838130
C         8.19133443120706    5.68371015900738    6.92422598269271
H         7.44295591731652    6.36585531822410    6.48677571391265
H         8.38074562355493    6.00415853183965    7.95949592507828
C         9.94248095874745    7.01303348980936    6.09175231051273
H        10.25205996793468    7.39099346716707    7.07813729428806
H         9.25758984326259    7.73742537757459    5.62367366453509
C        11.19091598909242    6.90959316775618    5.21709834792031
C        10.91755003053173    6.16839688432816    3.87207577709325
C        11.88018724847935    6.61060990893430    2.72735131762829
C        11.65663933116536    8.06399164922856    2.20630608883872
H        -1.13454590653378   -1.86273219185974   15.43901839926986
H        12.48442348508184    8.71429864234118    2.52995747528135

