81
CSD_code = VEYSOH | q = 0 | S = 0 | Stoichiometry = C42H34PdS4 | MND = 4
Pd       -0.00077265187236   -0.00060807613397   -0.00160280163503
S         0.02266264719263    0.54669808381624    2.21926555053110
S         2.31607778870737   -0.27447817501485    0.10345056652239
C         1.73842510859455    0.39720433352275    2.68647642357319
C         2.67082988729864    0.09347046788879    1.75185551768594
C         1.98231047465151    0.60189229492235    4.11150664500927
C         2.92305063383561   -0.16424188435242    4.80415451863346
C         3.12301729367476    0.02417919425307    6.15731599634236
C         2.38541405706496    0.96950230037914    6.85156425322838
C         1.43967576453604    1.72501262664731    6.17881050577419
C         1.23687848699150    1.54159534467853    4.82497634052694
C         4.11418500020764    0.09862039417969    2.04334211715437
C         4.70737822394058    1.19094219786523    2.67104759261125
C         6.06713220255867    1.19565344787417    2.91609079729534
C         6.84861872676332    0.11541159737106    2.53917129587702
C         6.26601186037088   -0.96693664315527    1.90166670726655
C         4.90745091417575   -0.97334575792054    1.64706206441821
C        -0.60449959902452   -1.07239932079036    2.87123510104232
C         0.09174584148009   -2.16059671666544    2.12344688797913
C         1.29478652166279   -2.67716760014630    2.58633461220588
C         2.02905765439703   -3.55134468746145    1.79960295196418
C         1.57451516841409   -3.90517656723931    0.54247731362091
C         0.35142969756535   -3.43121418902134    0.08666317456810
C        -0.39466452978588   -2.56176613399125    0.86951547565435
H         3.49630855276667   -0.91186101073270    4.27680936895813
H         3.85546483351436   -0.57753495904284    6.67551861500938
H         2.54347818032990    1.11238840843075    7.91002169545626
H         0.85705358831887    2.46253502085864    6.71136927396176
H         0.50046940335184    2.13710957501491    4.30401599500038
H         4.09804824530949    2.03508490518022    2.95905055803646
H         6.52009421899417    2.04758973762157    3.40166610001697
H         7.91057609905267    0.12092647870261    2.73601054817937
H         6.87220951810648   -1.80794355038955    1.59795069068762
H         4.44528890459840   -1.81000985031160    1.14364640628726
H        -0.38981842243834   -1.07729779800948    3.93977512655321
H        -1.67980575297658   -1.04758916142142    2.68850621592913
H         1.65978937483259   -2.38904192149217    3.56182582704838
H         2.96711480001424   -3.94023976041698    2.16840427121549
H         2.16360366593049   -4.56108652259569   -0.08099719753686
H        -0.02457854659042   -3.74128632867858   -0.87880021888147
H        -1.39875090649129   -2.26516380675746    0.55217200226252
S        -0.02228758048278   -0.54773061619677   -2.22060075156142
S        -2.31717385961172    0.27640729502532   -0.10293078620409
C        -1.73840332165363   -0.39692366805581   -2.68619695845856
C         0.60455790828642    1.07215025057850   -2.87118185575027
C        -2.67074525373279   -0.09300707451564   -1.75135972321110
C        -1.98243988809489   -0.60196554385745   -4.11114649386991
C        -0.09178843702795    2.16028199292019   -2.12343934046854
H         0.38999535206922    1.07706382074046   -3.93973155764935
H         1.67985816078108    1.04734793039343   -2.68841228632624
C        -4.11407259685051   -0.09828901382932   -2.04295095155680
C        -2.92312937921881    0.16400169985327   -4.80405042953723
C        -1.23686148690385   -1.54176215655108   -4.82434229313192
C        -1.29448124015956    2.67729512905577   -2.58685644567384
C         0.39427013901132    2.56114095249655   -0.86926009375773
C        -4.70729589923353   -1.19067597433994   -2.67055484477553
C        -4.90722544850709    0.97388250132023   -1.64706102702508
C        -3.12306938334083   -0.02486052727193   -6.15716533832461
H        -3.49630807730246    0.91186578159085   -4.27696015910888
C        -1.43961255008953   -1.72558686276928   -6.17814949578352
H        -0.50029429403617   -2.13693666098297   -4.30319716967175
C        -2.02898795203186    3.55129910315545   -1.80020671585962
H        -1.65912181133175    2.38951415421977   -3.56262082151598
C        -0.35192564487615    3.43092404649632   -0.08678986256343
H         1.39836635581644    2.26487009554267   -0.55194002437528
C        -6.06701268796436   -1.19527478606300   -2.91584767685132
H        -4.09799060204456   -2.03491452812301   -2.95836273353082
C        -6.26575385359949    0.96755215881218   -1.90188347228453
H        -4.44508007471523    1.81065394461172   -1.14381074006509
C        -2.38542735443578   -0.97037311456797   -6.85112677673444
H        -3.85550034643368    0.57670600049095   -6.67556682318706
H        -0.85687691655535   -2.46317636513660   -6.71050031482517
C        -1.57477628695409    3.90505955503151   -0.54292214039880
H        -2.96677113966062    3.94062154352922   -2.16940986774370
H         0.02412956398559    3.74148077755595    0.87843934511724
C        -6.84842280178428   -0.11487954354579   -2.53918022664796
H        -6.51994694727807   -2.04724080994583   -3.40138574496665
H        -6.87191251920199    1.80866139131565   -1.59838157626848
H        -2.54345400833979   -1.11357516306663   -7.90955478219675
H        -2.16391083445611    4.56124182795368    0.08024955233704
H        -7.91037993204478   -0.12033553133829   -2.73602548160225

