45
CSD_code = VEYTEB | q = 0 | S = 0 | Stoichiometry = C19H21ClNNiOP | MND = 4
Ni        0.27891101587522    5.29575853786898    7.94393543613105
Cl       -0.16351005337365    6.80839987494136    9.30332551520056
P         1.88968772072615    4.99696533805764    9.23638998764845
O        -1.26971343231813    5.61945064499012    6.94003274655622
N         0.96307445597647    3.92921465923380    6.76372916051946
C         1.06832618595214    2.63801892631547    4.67450840837819
H         2.08110371784422    2.96857502159477    4.44847022941946
H         0.51155654337262    2.57194589904631    3.74482368345382
H         1.12110972055972    1.63963760937965    5.10967904033952
C         0.38924676004002    3.59754035217952    5.62189453582468
C        -0.85838721941647    4.07800791298132    5.20567991635760
H        -1.26050979589562    3.69043317880222    4.28319871972077
C        -1.61734468344467    5.02648344034051    5.88197544367038
C        -2.96440022676785    5.40272864621390    5.30383269157698
H        -3.41897309103484    6.17452428604137    5.91824050652087
H        -3.61477571931303    4.53149325641682    5.27910500635125
H        -2.84599841508754    5.77164768185819    4.28806083199769
C         2.27375504858203    3.35769188576251    7.06874441603475
H         3.04217976990632    3.91627526352312    6.51511252743601
H         2.32150234658183    2.31113946598007    6.74610105860396
C         2.57711047556519    3.40639174648491    8.56701749889199
H         3.63938250842993    3.26454086808540    8.77436226842267
H         2.01567041924420    2.61554922127004    9.07549154668544
C         1.63544249443641    4.56937724221242   10.98186180686709
C         0.35959048399606    4.21237576568283   11.40072231623650
H        -0.45950479122455    4.26828865876512   10.69330042558617
C         0.14578023861240    3.81572734009507   12.70803630328612
H        -0.84708021989396    3.54515206141206   13.03502149287146
C         1.20655759043872    3.77141946540254   13.59811468692391
H         1.04085053413803    3.46657170091460   14.62089954705804
C         2.48112362764467    4.12063413984449   13.18061103004520
H         3.30634135614060    4.08500524168572   13.87680780358445
C         2.70044284421714    4.51726214898194   11.87396997745266
H         3.69273708015754    4.79427238056928   11.54607321619723
C         3.25216621903521    6.18967820192299    9.29241820948429
C         3.10562958315423    7.29331283680420   10.13120585431031
H         2.20184017334032    7.39145670880936   10.71581543792277
C         4.09921595012026    8.25146650880846   10.19139890346350
H         3.98393890679479    9.10461341649052   10.84315199142259
C         5.23928266355083    8.12203931334144    9.41315542929387
H         6.01531351744562    8.87164689302100    9.46045904999879
C         5.37948084615496    7.03564798881402    8.56598122555674
H         6.26317459626684    6.93881660643156    7.95187848687195
C         4.38760189290067    6.07272380226440    8.49907305008634
H         4.50177036057303    5.23439786035483    7.82723257973764

