37
CSD_code = VEYTAX | q = 0 | S = 0 | Stoichiometry = C11H21ClN2NiO | MND = 4
Ni        2.04922933887261    2.59383423966567    5.22388420406191
Cl        0.29816001348996    1.86268020753149    4.36624962531809
O         1.85670311880621    4.12338300289789    4.23755032401714
N         3.82504624106056    3.06002397958172    5.77563654001403
N         2.20705836195814    0.99307574446503    6.44955249012791
C         5.98046449847537    4.23127127061330    5.76497088078347
H         6.43237192641486    5.06915443350566    5.24331777981604
H         6.54117759147418    3.32785357233837    5.52833330767608
H         6.06075173379227    4.41157708453594    6.83729690555102
C         4.53654518635957    4.08106799433572    5.36145109115655
C         3.99614357992727    5.08186273547182    4.53982663599638
H         4.62282364256844    5.91591670469524    4.27019751332564
C         2.70043940896893    5.05185308710785    4.05132532529335
C         2.22245461520594    6.20550890536686    3.19793900897394
H         2.38218245557102    7.14909661674695    3.71428288934695
H         1.16520161757585    6.07916903022471    2.98123445016728
H         2.77837679526012    6.22444661579980    2.26253651235086
C         4.42895403508112    2.06018765252761    6.63837341771607
H         5.09270720602661    2.51396031647853    7.38491807133772
H         5.03006944774953    1.36027776697793    6.04037260744579
C         3.30786580920503    1.32689957747797    7.36949536740505
H         3.69081048922067    0.43215280527225    7.87430334848465
H         2.91109705483789    2.00346743548023    8.12820708183303
C         2.53280030310134   -0.16407780673358    5.58967976478342
H         3.43861134897644    0.07921917824988    5.02705186889366
H         1.71203996004336   -0.26560568851427    4.87441625448057
C         2.73135430121755   -1.50398798186923    6.29883604051024
H         3.56342676354550   -1.48519141057083    6.99914762155519
H         2.95015215225138   -2.25719018499157    5.54630317187176
H         1.83306470818333   -1.81030782474088    6.82693167750103
C         0.97530628192893    0.74422205834830    7.22408454435603
H         1.18309604131269    0.04912980607869    8.04682666780252
H         0.25243842644683    0.29583108810383    6.54111255548774
C         0.37707269143710    2.03817965364780    7.77141553794818
H         0.87764868690064    2.38380365915800    8.67339886649447
H        -0.67387298541215    1.88828610579989    8.00016782379529
H         0.44822715206987    2.82046856895766    7.00117222639173

