41
CSD_code = VEYWOO | q = 0 | S = 0 | Stoichiometry = C18H17Br2FeN3 | MND = 5
Br        3.71486997337132   11.46624566295255    5.97843328864897
Br        3.49083521471451   15.69243955806256    7.74459838328047
Fe        3.24305291179687   13.63855465931024    6.68047754399960
N         2.28814221403081   12.99747743144244    8.19550833648699
N         1.40939712930901   13.59730672366649    5.76460572430129
H         1.59267901368481   13.17576158443606    4.85182784869263
N         3.93249280071211   14.39682567518095    5.04076378468878
C         1.06301257406469   14.96120717119108    5.58907629100731
C         5.71277852129646   14.44693867457427    3.42876885687151
C         1.98150935151195   12.63480568124062   10.53120643165213
H         2.42013260464505   12.60083989262134   11.51497534817315
C         0.55309107523850   12.70765971220278    6.55494791057889
H         0.71670758304649   11.68799302071115    6.18733507226583
H        -0.51080924133955   12.94106466644041    6.44747891907972
C         1.90847964979183   15.72352355393163    4.76056449252136
C         4.91130515127617   15.19991617857817    2.57454515706525
H         5.27289334616323   15.48979481843105    1.59954721168971
C         0.98695092645206   12.72882450626090    7.99823249734665
C         2.76637802395851   12.93928511637991    9.43735034521817
H         3.82132160539249   13.15322860044648    9.54411428191245
C        -0.02562428120514   15.56152807549452    6.20394607359905
H        -0.64473311652984   15.00521376819702    6.88914406093783
C         0.48594571574928   17.64016829817021    5.12060031307004
H         0.26588542412676   18.68061724112717    4.94042709991699
C         5.16166008731082   14.07813613817039    4.64446686649756
H         5.73593291133206   13.47907858211825    5.34032015384757
C         0.63127744938757   12.38587039544577   10.33686628096203
H        -0.01719738729166   12.15792847549944   11.16784567981260
C         0.13223757956885   12.43103021013068    9.04257880459172
H        -0.90900779089202   12.23056619891771    8.84212996373416
C        -0.31003717564946   16.89644009869509    5.97195175421763
H        -1.15432121704065   17.35277490577733    6.46507291724036
C         7.10611601502662   14.04811000401820    3.06912923049314
H         7.24439797821826   14.06121194518694    1.99099117899103
H         7.32969872963069   13.05307361507525    3.44619330994668
H         7.81753623555345   14.74477617031590    3.51320800292039
C         1.59443633611162   17.05895701433075    4.53268984088231
H         2.25385971000448   17.66048967141440    3.92654088853884
C         3.18234896489016   15.19096414019078    4.24734007314628
C         3.65320358763068   15.58283717582898    2.99681193569002
H         3.01696381494992   16.17243498783400    2.35558784548248

