73
CSD_code = VEZDAH | q = 0 | S = 0 | Stoichiometry = C29H26B10F4IrN3 | MND = 6
Ir       32.95333498436177    2.32815142759763   -0.08990348502318
N        31.86488041146845    2.30288027220903    1.88504365226548
N        34.56470419410186    3.30711634454250    0.77141803472289
N        31.66639840274741    1.10204280984531   -1.01369326282350
F        34.42276781006302   -2.89428385084830    0.66234353098187
F        36.62083165620157    0.38829224022017    3.15607786949788
F        36.13154168492908    3.93880749049423   -4.17443447587931
F        32.45732269788996    1.25040089499657   -5.21706588232425
C        31.60138871881254    3.99241187667657   -0.31170136469472
C        30.62192928664303    4.15363609399114    0.96930624035268
C        30.86438638236653    3.18872968107505    2.04491840511014
C        30.09154005395536    3.19228957013109    3.21169504491348
H        29.29507187238313    3.91074751572248    3.31280648575654
C        30.35583044504017    2.28520610395154    4.21469212237965
H        29.76827835569004    2.27988261304246    5.12033276059003
C        31.39267403969644    1.37749539492351    4.03542647110271
H        31.63929596834843    0.64738948551143    4.78870991619386
C        32.10870947533874    1.42810502075023    2.85706091130449
H        32.91360256823135    0.73018337297370    2.67771606038591
C        34.13399455976091    0.72668029699768    0.46245323019484
C        33.93293728730131   -0.62964115993858    0.22139686478278
H        33.23410795818504   -0.96745589329087   -0.52910629535803
C        34.63569097616393   -1.58658164384360    0.92619283042542
C        35.53685398932999   -1.25197873937370    1.92077060129393
H        36.05657970040924   -2.00442198482481    2.48985714399554
C        35.75510689279643    0.08990467619894    2.15526709470517
C        35.09892591786525    1.08963811182153    1.43498077253886
C        35.37340750347504    2.51918212831938    1.52283622028460
C        36.45580128428392    3.06532099802651    2.21567773993476
H        37.07694062149657    2.44149947611331    2.83298233214866
C        36.75261815381508    4.40813618758741    2.09439560860931
H        37.58549277011972    4.83456977452929    2.63175994680057
C        35.98275881431415    5.17815378592857    1.23699302463262
H        36.20189486365099    6.21812589656186    1.06011292534031
C        34.90820517037979    4.58386368111688    0.60315068886995
H        34.30233419427032    5.16097757371949   -0.07611276780724
C        33.66166716598971    2.46178928826854   -1.96451542560990
C        34.76364691091238    3.17932308366582   -2.41887425920021
H        35.41572472397178    3.70334979113728   -1.73893137292902
C        35.05609849642224    3.23488653748634   -3.76615840791861
C        34.28274032479480    2.59631565690081   -4.71945308897343
H        34.51394655314606    2.65876144574865   -5.76934317090065
C        33.20042285272556    1.86962268643571   -4.27248681822986
C        32.87126884894694    1.77316341123396   -2.91936810603524
C        31.79101261873173    0.98057431234808   -2.35797066169158
C        30.96844128220905    0.10618576916842   -3.07119233824053
H        31.05788767925686    0.02847268632670   -4.13979758165344
C        30.04406160394747   -0.67195905103157   -2.40518151261655
H        29.40627304671940   -1.35134682560660   -2.94839339956079
C        29.96485113125526   -0.57569237957030   -1.02209395869651
H        29.27615112765069   -1.18000129321705   -0.45436242205370
C        30.78802699165443    0.32439291114589   -0.37940389035749
H        30.73865371485772    0.42132652490465    0.69611864898492
B        30.72364342994694    4.48829659309723   -1.71378093078623
H        30.97691081511080    3.95847316061143   -2.73395069484558
B        31.89177410953546    5.55826504230567   -0.96944680533307
H        32.91777448614999    5.74986625244770   -1.51626290659664
B        30.32739772882742    6.21733804818954   -1.50046995472997
H        30.25365146204121    6.94777035429655   -2.41997545956414
B        29.08401178946432    4.98532820777488   -1.17521566674393
H        28.13388723427666    4.83025805961510   -1.85227586464504
B        29.89685775552985    3.60430132994409   -0.46598314489752
H        29.56275055294034    2.47782273645599   -0.50046540188503
B        31.81725205292951    5.34247998950490    0.76584328154234
H        32.70282352064027    5.30456957049559    1.54154995233044
B        31.02139544398059    6.73840123312223    0.05987289477533
H        31.43729360792315    7.82231103968173    0.25498450311461
B        29.27923010694455    6.36912779403697   -0.06735844461139
H        28.45397844479580    7.20105760129937    0.04330192918852
B        29.03743534751957    4.73655025879927    0.58119622648759
H        28.13403285417475    4.31362067320725    1.20865813210131
B        30.20597234222686    5.80220404369482    1.32807387329976
H        30.09781217596814    6.09783593261688    2.46355525127024

