45
CSD_code = VEZFIR | q = 0 | S = 0 | Stoichiometry = C21H15N2O6Re | MND = 6
Re        2.19474735036237    4.74699551492239   10.48569058843585
O         1.67557276214674    5.58223807964905    9.15656993207158
O         2.79873615004153    3.02957709618170    9.36823410424038
O         2.56560009437244    0.99003847157965    8.61740200599766
O         1.68646540251584    6.28917571018419   11.90233229005461
O         2.38931947444252    7.33571423481297   13.69711022642566
O         2.74618837616344    3.87619752742256   11.90261669541751
N         0.21006296722613    3.84321984886256   10.67996799487275
N         4.17714017991787    5.67207619653629   10.26939043880944
C        -0.58903937196522    4.44801496138713   11.53093095778853
H        -0.13096449659044    5.18000082042832   12.18407167557524
C        -1.96646630888591    4.21800367021920   11.59079333186157
H        -2.56268458206127    4.74241036012314   12.31947679315792
C        -2.52125028309429    3.35868725301356   10.68285186885636
H        -3.58719431122947    3.18450688434419   10.65061265438318
C        -1.69131489589060    2.68375483757179    9.76814604732928
C        -2.23802330460879    1.79434031365435    8.82108571460820
H        -3.30950875022874    1.66014215022282    8.80006287301619
C        -1.42128696644605    1.11671048597135    7.96221618692405
H        -1.83030289044688    0.44102600116927    7.22686468182848
C        -0.03604548585723    1.27218531114008    8.06678467271341
H         0.62118833933243    0.68150474486348    7.44570559983367
C         0.55125841613464    2.13537541062901    8.96742368466742
C         2.07885705618287    2.04143468844941    8.99474702793060
C        -0.27906030454613    2.91469635599691    9.81630233636614
C         4.95088499932124    5.07509874974143    9.38925103540681
H         4.60535377831315    4.11985563229878    9.01545355940316
C         6.15705188530015    5.61384917883233    8.93179162056054
H         6.74331950010518    5.06848357003175    8.21047026630467
C         6.54270569524132    6.83860638852699    9.40197966559803
H         7.44965891810264    7.31487806653061    9.05804745125806
C         5.74690843454608    7.49624905677512   10.35863146233440
C         6.12999404175742    8.75334863895252   10.86842685835285
H         7.03734349145278    9.20459556153791   10.49467795952346
C         5.37069673793911    9.37180757136707   11.81955646242086
H         5.65507917104783   10.33480686775036   12.21502700794618
C         4.22397989809917    8.73474695547644   12.30247321665824
H         3.64577811993720    9.19189457401560   13.09191503367288
C         3.79595536148461    7.51326048775345   11.82758927677107
C         2.54489974490966    6.99198281457561   12.53753837259608
C         4.54241395301594    6.86542783763787   10.80809757111700
C         3.15001899574140    3.31063846101502   13.07079657396411
H         3.07982082705175    4.04165706236709   13.88985298060390
H         4.19120521619297    2.96684077185562   12.99220955926684
H         2.51893661345150    2.44474482362288   13.31742368307259

