53
CSD_code = VEZFOX | q = 0 | S = 0 | Stoichiometry = C23H19N2O8Re | MND = 6
Re       11.95047205667511   -4.45242025678312    4.28346717388187
O        12.78255028775817   -4.33595420054242    2.86331645264834
O        10.11637831399480   -3.57268694326372    3.49136818885248
O         8.87727484917621   -1.73622065584532    3.51241826860460
O        13.60468223926194   -5.35960410943843    5.38876259836767
O        14.31434526070637   -7.26731949942506    6.26310378125744
O        11.07216967198293   -4.58092959273547    5.79676718294122
O        12.05303328167919    1.79916319975525    5.36060556594552
O        11.46071540520238  -10.77008611702408    3.90042450618710
N        12.17233954304764   -2.28046549284772    4.64725010716744
N        11.68640092577946   -6.63381238272659    3.99695956511229
C        13.26077394940180   -1.63881198576106    5.14366663913356
C        14.44386941709526   -2.35169360265907    5.41520320414205
H        14.46056764455857   -3.41237897070933    5.22127673779188
C        15.54249489255516   -1.70431878115703    5.91482693566124
H        16.44397949071983   -2.26172714765147    6.11755353958272
C        15.51276855416434   -0.32569046729478    6.16610035458318
H        16.38883899832600    0.16575857071797    6.56134706849281
C        14.37818655350485    0.39425383993958    5.90810255866078
H        14.33404609844333    1.45663479253392    6.08927981058618
C        13.23267868624720   -0.23966054595581    5.39100921472058
C        12.03763519849534    0.48683858665254    5.09929159004620
C        10.89603981243570    2.55990790254064    5.07556611095912
H        10.65283680734726    2.52644826180615    4.01067678570223
H        11.13896599397041    3.58117967794507    5.36310827564829
H        10.03879675165301    2.20972602384761    5.65627875007177
C        10.97067610471331   -0.21138775601250    4.57172415525879
H        10.02952930962390    0.23906936361418    4.30010025946389
C        11.08809961192640   -1.58525148684633    4.36319355211392
C         9.90847589266785   -2.33681027507797    3.73904558801160
C        10.77295241479457   -7.25275270744348    3.20615176600842
C         9.89717002906660   -6.49580420584809    2.40503266119396
H         9.97019311502164   -5.42036857947561    2.43826827494135
C         8.97647974946728   -7.11993643922828    1.60596697656245
H         8.31145403250571   -6.52850159506160    0.99570365319919
C         8.88607959387652   -8.51818401899682    1.56905692811035
H         8.15263888229981   -8.99097089181534    0.93362615369229
C         9.72655464677675   -9.28027049448235    2.33389543182228
H         9.67785554497232  -10.35767788991333    2.31824684801033
C        10.68619130681651   -8.67064656090502    3.16389531786259
C        11.58522550134927   -9.43928435666006    3.96505240233936
C        12.33971458447033  -11.56998220277499    4.66608718613451
H        13.37982687555031  -11.40649129555299    4.37331110683817
H        12.05802132819823  -12.59977626138002    4.45433718515567
H        12.22646631236708  -11.37138393745847    5.73492016393568
C        12.50725786957497   -8.75862957115296    4.73361562156876
H        13.23935729340839   -9.23790722096863    5.36347457001992
C        12.51939502938456   -7.36433715646565    4.71260432158434
C        13.57688491233868   -6.62781291210660    5.53979094650620
C        10.44461503520276   -4.70865735727035    6.99560234909686
H        11.14284739476309   -5.09642944949556    7.75195618516397
H         9.59387212942394   -5.40026836659252    6.91290928897730
H        10.06502481525540   -3.73457647854529    7.33760013968111

