41
CSD_code = VEZGEO | q = 0 | S = 0 | Stoichiometry = C20H12ClN2O5Re | MND = 6
Re        4.83345352615452    3.10184922840961    2.48939023508673
O         5.02547490748728    1.46985566437504    2.69373767676394
O         4.46159690393087    4.82605999683894    1.60603274052296
O         3.50281956182866    6.04792822669855    0.01108428300987
O         6.10558287641108    4.11384329375565    3.69131737896758
O         8.00635181736739    5.20885288515560    3.89917300801234
N         3.31496290074933    2.69936813100800    1.00767170007919
N         6.63288210893240    3.32771275930160    1.27237210579259
Cl        3.08722449897834    3.44015357172709    3.88876635578708
C         2.85977590362873    3.74383711950969    0.33619256886581
C         3.64128265620867    5.02560784930768    0.64218160114138
C         1.77204896372642    3.66011144838858   -0.56443031611916
C         1.26063540784750    4.76476934785696   -1.27801137962166
H         1.73000489962541    5.72607617505347   -1.14845159788718
C         0.18851444891642    4.60245698446087   -2.11314717173074
H        -0.20361849945510    5.44993936639869   -2.65433870704454
C        -0.41505990239185    3.34564394926512   -2.27642261487791
H        -1.25996327476414    3.24569347984814   -2.94115287048983
C         0.05931016505451    2.25554187786548   -1.59827763268497
H        -0.40030220809264    1.28553828539677   -1.71488922129032
C         1.15776356108517    2.38438534571732   -0.72797354458635
C         1.68321704645936    1.29886352627203    0.00569525816948
H         1.24001672748791    0.32071609645657   -0.09551351175199
C         2.73824120977526    1.48692048864866    0.84843441611076
H         3.16521689811795    0.68816473815117    1.43844077882062
C         7.57175972816688    4.06688214201184    1.82778947745256
C         7.23717054764826    4.52758906931002    3.25950734931749
C         8.78160929731802    4.36265640188466    1.15171885716282
C         9.81724591671967    5.14679154908918    1.70572868495633
H         9.69086180766936    5.53805989615853    2.70197799590652
C        10.95125255085284    5.39653637828511    0.98247530598065
H        11.73936030279835    5.99675678455445    1.41079743575869
C        11.10866844895681    4.88191145367039   -0.31450412123089
H        12.01426337349066    5.09351248418648   -0.86323011576268
C        10.12536156880583    4.11750723351604   -0.87956783163098
H        10.23620079515177    3.71573019581045   -1.87585634482095
C         8.94401219945242    3.83854502339402   -0.16543094254980
C         7.90480301115909    3.05198914740770   -0.70369173450468
H         8.00163963320095    2.63669940207604   -1.69467863694841
C         6.78189707312610    2.82323148979122    0.03772892862308
H         5.96156064040796    2.22171151298665   -0.32474584675390

