67
CSD_code = VEZGAI | q = 0 | S = 0 | Stoichiometry = C33H15F17MoS | MND = 11
Mo        1.64967077537544   -0.05274596611746   -5.64460016270172
S         2.98932441036734    1.40352018896968   -3.06205549411963
F        -0.80468424076376    1.10798649678450   -9.00314799902829
F        -1.97884021087886    1.87517564605142   -7.36672004208011
F        -0.18011912590801    2.88052008805846   -7.98627416199467
F        -2.02410817684332   -1.39523397399867   -7.69301808773246
F        -0.17851172296416   -1.78690682420137   -8.74940786241030
F        -0.58933612746854   -2.78923923875695   -6.89748389180539
F         1.61670539197609    3.23283386356975   -6.21170207092924
F         1.43824704702940    4.12074315930961   -4.24362258715644
F         3.32686954082123    3.40915644373819   -4.96560993335239
F        -1.88020616983435    1.34062224297566   -4.60710979646065
F        -0.72690681985269    3.04101992163970   -5.22015637530668
F        -1.11514837122156    2.72892182093832   -3.14635461168481
F         5.02470450922016    3.58748451463694   -2.70718287807406
F         4.77641175972591    5.86474804560848   -1.24838520476492
F         2.49855301786381    6.33289529932858    0.16259071782528
F         0.48795670361263    4.49108191071545    0.16131748681790
F         0.76545093297157    2.19807086227753   -1.28774501629577
C        -0.71977033034110    1.67792801235377   -7.77790839271910
C         0.04838651762901    0.77870484771296   -6.87171328930807
C        -0.01298237360516   -0.52013428859484   -6.79559714213136
C        -0.71654769561657   -1.59765698595831   -7.52519907466044
C         2.01180023776152    3.12008255411337   -4.94304402473050
C         1.77206401673081    1.74876319884703   -4.38141477829152
C         0.43067630989677    1.24392012688208   -4.15624648152250
C        -0.81218627964225    2.08720106180372   -4.28832215562810
C         0.33625696018378   -0.07658149555178   -3.64370360266049
C         1.53464081265605   -0.80424463103971   -3.79132528807988
C        -0.88073539838738   -0.70070867202273   -3.09217772305467
C        -1.58408782235377   -0.11122534512347   -2.04427310380065
C        -2.69077655815962   -0.74794496310335   -1.51269377271398
C        -3.10599821360976   -1.96882435293779   -2.01549409557623
C        -2.40112322319931   -2.56436598010390   -3.04857419952412
C        -1.28931715345423   -1.93999769321989   -3.57992193430180
C         1.91919755871337   -1.84087772885760   -2.87419758576563
C         2.45766810077633   -3.06231125272659   -3.28837916579961
C         2.81567044270598   -4.02240265840510   -2.36279180590528
C         2.66023759450910   -3.78164145813433   -1.00708768072556
C         2.12654102267039   -2.57511376581949   -0.58020301075775
C         1.75335323234154   -1.61728808480552   -1.49904958949054
C         2.86806667186577    2.88644285222345   -2.06975661664417
C         3.90440994907247    3.81425407375576   -2.02964474275132
C         3.78272143943877    4.97960306062549   -1.27804642559048
C         2.61758500565285    5.21949861692309   -0.55304620624789
C         1.58563161188726    4.28270496299614   -0.56038660283587
C         1.72759538681288    3.12126192400435   -1.30902721471587
C         2.72770939639296   -0.82083320331906   -7.54264537140355
C         3.25497202177389    0.46277509659730   -7.26096564795879
C         3.92288368768562    0.39172260677194   -6.02000871992169
C         3.80177699774796   -0.92736303722993   -5.52302309275776
C         3.06305953383605   -1.68392104378817   -6.46512625671838
H        -1.25978845213384    0.83185473630383   -1.63450515231403
H        -3.23088023399985   -0.28224030391488   -0.70263919612720
H        -3.97616519469914   -2.45621637331647   -1.60288770895101
H        -2.71750053527542   -3.51690231794700   -3.44491757121688
H        -0.73922476394328   -2.40263446689133   -4.38736811280087
H         2.54943307548796   -3.27199181543218   -4.34110423880119
H         3.21641382944529   -4.96647984235274   -2.70030727808238
H         2.94647920610547   -4.53305224590339   -0.28708154520655
H         1.99632779617630   -2.38472784529362    0.47441030788988
H         1.34048401387719   -0.67591400725995   -1.16769828160088
H         2.31775914022366   -1.13362424878254   -8.49833943240354
H         3.26979799334474    1.30311334417702   -7.94005593382477
H         4.54301517517787    1.16767199228578   -5.59057032315580
H         4.33023620755436   -1.32038867985275   -4.66617781910821
H         2.95000015905990   -2.75804878221725   -6.48269494834821

