45
CSD_code = VEZGAK | q = 0 | S = 0 | Stoichiometry = C21H15N2O6Re | MND = 6
Re        2.89015476591369   11.58772516012574    2.38824488522117
O         1.20036539512288   12.55721960365280    2.38831909563189
O         3.94416979131155   12.72759865716208    2.99097765649392
O         3.04244305880836   11.53142031870978    0.35749833001794
O         3.80887876845522   10.47798159100941   -1.41804317529845
O         1.85443688628213    9.87682258182226    2.23777434712103
O         0.64408537287225    8.26000727610020    3.16384811025256
N         4.50042645641197   10.15042789739428    2.01032016427909
N         2.26461214862775   11.12474462448578    4.36738675614556
C         0.90621363490739   13.37715824672852    1.31171318192472
H         1.57280213068507   14.24916850982367    1.30411747170014
H        -0.13179915005148   13.71477055093412    1.40773171184312
H         1.02481970995078   12.84622529657464    0.35946511101606
C         4.68606784618754    9.86426776790455    0.73663136992723
C         3.78334711033833   10.66430321514198   -0.22020389334552
C         5.66196454305933    8.92481407502391    0.31741368302317
C         5.90829591957598    8.59987835156545   -1.03475753267401
H         5.32833759608270    9.09462497720020   -1.79653835296703
C         6.86275772764541    7.67451251472201   -1.35721687298832
H         7.04604024197800    7.43080910672198   -2.39271007902955
C         7.61232164435952    7.03230886849270   -0.35868809675762
H         8.35998722992867    6.30574050617725   -0.64025310992123
C         7.40060826757164    7.32567623115380    0.96005414318472
H         7.97295403872103    6.84040197604132    1.73689042402927
C         6.42825927834795    8.27531475984586    1.32968681106815
C         6.18090345265999    8.61739484872378    2.67505331617851
H         6.74646423261005    8.14448649179754    3.46291419403863
C         5.22594684336146    9.54767417673686    2.96731907437544
H         5.00757403836433    9.85202856764951    3.98069089959432
C         1.45282456530084   10.09063384491170    4.51212623752143
C         1.25855813940921    9.30379581131164    3.20943435761936
C         0.85717236228559    9.75415560654158    5.75221721937019
C        -0.01755654204607    8.66066079299284    5.92827872004547
H        -0.23729223786218    8.03600388310288    5.07808787365115
C        -0.56759921881179    8.41274591305682    7.15690448099889
H        -1.23921091278911    7.57759542663123    7.28592725954164
C        -0.27407951165258    9.23260758670409    8.25742936470742
H        -0.72086882426828    9.01497978620291    9.21605497054043
C         0.57146803032214   10.29992555383544    8.11853464008488
H         0.80364402387203   10.93750705920258    8.95859739363147
C         1.15342895333600   10.58648048678332    6.86982394233987
C         2.02724385398185   11.67667988718666    6.66570118425112
H         2.27257083435211   12.32667461073708    7.49105542887176
C         2.55134017885110   11.91112446784417    5.42982681249434
H         3.21911732562715   12.73612253353348    5.22616049024046

