23
CSD_code = VEZGUD | q = 0 | S = 0 | Stoichiometry = C8H6Cl2N2O4Ru | MND = 6
Ru        0.21256527149421    0.84713775801726    2.86608403228119
Cl        1.48806469275019   -0.53980656316133    4.29367572494563
Cl       -0.81279366697750   -1.01138507896898    1.82463519565191
O         2.38553827960060   -0.11808098947271    1.03455039464546
O        -1.58569656319055    2.21085958584044    0.87662803979510
O         1.72781981007919    2.92478490728555    4.42730167237400
O        -2.88153207671620   -1.71054112180475    6.26414917199954
N        -1.30506981620142    0.79694895446301    4.29873357050468
N        -3.27898603042870    0.55144911001937    6.24137977004695
C         1.59753959179766    0.38447373281438    1.66913879067795
C        -0.88367529193278    1.77159576639046    1.65441453185070
C         1.12008096781055    2.19807589151649    3.80002190215985
C        -1.61127428912792   -0.38309268551163    4.80524285213666
H        -1.08722597159496   -1.26660186385565    4.46023156006331
C        -2.61648677601683   -0.50575742121952    5.79340143321272
C        -2.95711490807215    1.72643004177071    5.71892143044720
H        -3.50660513693803    2.57729226508230    6.09471306108239
C        -1.98078627273643    1.86877377386501    4.75352437209744
H        -1.73137313731176    2.83594634908249    4.33774372623911
C        -3.89304754584280   -1.80081602711207    7.25689750850558
H        -3.62015896415343   -1.21302429271261    8.13516740707375
H        -3.96536986664415   -2.85531199969987    7.51080529586151
H        -4.84461229964647   -1.43395009262776    6.86793855634573

