23
CSD_code = VEZHAK | q = 0 | S = 0 | Stoichiometry = C8H6Cl2N2O3RuS | MND = 6
Ru        3.27451972254973    1.41848243714787    7.97744730349700
Cl        3.47095010772773   -0.93700363132032    7.85926454172445
Cl        2.56759929812612    1.56551381635529    5.72352051922933
S        -1.45077340400418    2.28498631461069   11.16032920254036
O         5.85894081942932    1.07565823592811    6.48993156591681
O         2.89056801654861    4.38849885400177    7.68855091530989
O         4.19898734252826    0.79925714398984   10.77253528855564
N         1.27548510559346    1.14877802038632    8.52158008367942
N        -1.38718742742951    0.61080447897912    9.11005129551457
C         4.96030860394302    1.30569001362408    7.13480575087191
C         3.05645317063025    3.28067357746847    7.87696848753542
C         3.84773170664204    1.11096361905387    9.73816179746923
C         0.66247683756378    1.75230204401491    9.53243928815815
H         1.21679439921550    2.46380095993252   10.13255941638498
C        -0.68051724232300    1.47842844702244    9.82699956290672
C        -0.76607916595898    0.02162988723624    8.10660752204983
H        -1.35048835056589   -0.68067035317436    7.53002550334496
C         0.56331607654067    0.27609026968480    7.79606518414168
H         1.05425849950199   -0.21878112444919    6.96809820198478
C        -3.10287706842880    1.54722977145463   11.06189591553243
H        -3.52934208428584    1.76602901242697   10.08888219642823
H        -3.69048885128709    2.00013732553295   11.85333418428442
H        -3.02003611224831    0.47540088009196   11.20684627293803

