68
CSD_code = VEZJIU | q = 0 | S = 0 | Stoichiometry = C30H33ClO2PRh | MND = 6
Rh        4.80815094013123    9.23069085538691    7.56855829905553
Cl        2.63963511766671    9.42235657256520    6.94878391879013
P         3.87479849821450    9.22161875781324    9.62900036140099
O         8.58052085407521    8.44127377741670   14.35070926489979
O         8.49414129368263   10.76463766252923   14.21198817594467
C         4.93888879118372    9.35217698341011   11.11190048413321
C         5.58602638404670    8.20435053188352   11.56270449623648
H         5.36446035727126    7.25358109720098   11.09549116947591
C         6.49196777997636    8.26780111328541   12.60294667630241
H         6.99712219100205    7.38068280023222   12.95012038010380
C         6.77403635184725    9.48715620801110   13.20353342050943
C         6.13445835030127   10.63610739383098   12.75868257526905
H         6.36412034538481   11.58157702598308   13.22486773410869
C         5.22923888604930   10.57050664472525   11.71593378718232
H         4.73958440599571   11.47079570802210   11.37141342931815
C         7.75935318301261    9.57620492312163   14.34426799295453
H         7.20306172671131    9.61400924804309   15.31548078211643
C         9.51439965134144    8.47335379616010   15.41042759796574
H        10.11185695138934    7.56591402364617   15.30856952277333
H         8.97876365774939    8.44915721910205   16.37411620643217
C        10.37486298255488    9.73436369013266   15.32888987561403
H        11.03252856722586    9.81040814149658   16.19354371153548
H        10.97224449567151    9.70141377533236   14.41696593269588
C         9.42415802654881   10.92977712431907   15.26247064778008
H         8.88518414974312   11.03064282104850   16.21939973216237
H         9.95360533526603   11.85953401348501   15.04816432374590
C         2.88584396200837    7.76243671510615   10.07241031678488
C         2.65383761314294    6.79510461559316    9.10226687687569
H         3.05751766164707    6.94316345095777    8.10647714840984
C         1.90977872602219    5.66929920025115    9.40762325419892
H         1.72656908547591    4.92127347889527    8.65035505963704
C         1.40041124355135    5.50250934563487   10.68454435801225
H         0.81520923289414    4.62649546768730   10.92357921731933
C         1.64834626251448    6.45432855781721   11.66175217609416
H         1.26043329122069    6.31642025500024   12.66090978309696
C         2.39400914567549    7.57938051043712   11.36269500862377
H         2.60956010480550    8.31099358076829   12.13034879877923
C         2.77099831892033   10.65704431948954    9.82473983473036
C         1.52971791427201   10.63556889861410   10.44310804524022
H         1.14171135413194    9.71622233016855   10.85629496851843
C         0.77160173929305   11.79337544785745   10.50236342636398
H        -0.19927183039235   11.77206905902023   10.97613386478698
C         1.24453731473549   12.97045068012132    9.94909548951267
H         0.64539817348506   13.86809812952203    9.99495925345974
C         2.47802489749620   12.99241365946522    9.31616076606976
H         2.83926140026232   13.90535339432303    8.86519877378260
C         3.23378442842438   11.83908989273374    9.24902039706806
H         4.18512300300508   11.82751907137811    8.72132403672251
C         6.73983016333126    9.83652703438169    8.17787926073092
H         6.71422109367356   10.25201141145532    9.18746795425717
C         6.72547581746335    8.44599213203649    8.06084348258079
H         6.65550862114430    7.87687130706495    8.98793316170110
C         7.38148936638571    7.69938442784377    6.91763402687167
H         7.75646162684733    6.74274929216591    7.28714141477027
H         8.24446760234720    8.26826467200066    6.56855083449210
C         6.40485752380614    7.42956545346736    5.75590387839736
H         6.95690394871116    7.34175387501692    4.81353592071897
H         5.90652445391350    6.47207841610301    5.92845199165008
C         5.33836671943816    8.48946611514485    5.60851020539766
H         4.41438605645177    8.13257204514266    5.15323912125104
C         5.56597039028530    9.85062235090093    5.62237920333931
H         4.79248594684993   10.49618632526619    5.20595115085463
C         6.94298351777470   10.46899328037756    5.71326407799701
H         6.95385497130211   11.39719245053785    5.13814159763882
H         7.66699845058050    9.79558027426054    5.25271857898286
C         7.34691612084926   10.78273510741952    7.16687104182736
H         8.43819274246840   10.76682148678670    7.26629643370372
H         7.01813254973831   11.79573057366401    7.41489531024677

