66
CSD_code = VEZJOA | q = 0 | S = 0 | Stoichiometry = C24H37ClO2PRh | MND = 6
Rh        1.73919843084323   11.49809761319541    8.13737460300834
Cl        0.76451799487610    9.89204648273025    9.39156580667762
P         3.31343456648873    9.90702983347650    7.67380530893907
O         6.75422854206063   12.31218348722449    2.47426433721192
O         8.54970024187053   11.31169715791975    3.57115213007953
C         4.56158134397558   10.25737790054364    6.37459417494996
C         4.12247291448082   10.26195513449240    5.05005143809253
H         3.08855611290666   10.03626678399446    4.83584784741380
C         4.98354796207114   10.54192361810452    4.00901875979379
H         4.62873381917686   10.53341489294399    2.98898789532500
C         6.31258130420177   10.84978802679267    4.26944063156958
C         6.75313815127757   10.88806374884576    5.58164584903176
H         7.78127315778088   11.14437429020460    5.78106557222328
C         5.88730313332507   10.59585122372498    6.62150988515246
H         6.26870705476564   10.63821779665141    7.62966075837835
C         7.23521866192998   11.15713615343656    3.11634961687208
H         7.21103258872841   10.31369682556169    2.38256029884122
C         7.54138885682608   12.65469128496770    1.35210041411248
H         7.10492673003968   13.57035344862695    0.95008216667740
H         7.47089460879939   11.85558829626150    0.59519534275036
C         9.00179998867050   12.85050084055196    1.76070047733878
H         9.62890481729796   13.01639614936361    0.88589435415363
H         9.07404826372330   13.70878210019662    2.42979062421049
C         9.43947756313398   11.59158125628327    2.51004367814513
H         9.46573063501680   10.73467005821672    1.81649205321932
H        10.42241936322075   11.71221149799456    2.96834645893454
C         2.64399093244916    8.23625682234996    7.18065585234769
H         2.25053971105800    7.84858524755651    8.12647665279306
C         1.45336472572439    8.37025066172795    6.23155342211084
H         1.76829910143386    8.50150350832609    5.19894054085182
H         0.83655807210781    9.22358149081404    6.52831630486762
H         0.83684057518490    7.47428969678338    6.27936661082081
C         3.71001780403465    7.29117997577071    6.64063293241315
H         3.28525723335899    6.29855024179457    6.49761355535803
H         4.54793844822494    7.20893230763582    7.33019542500809
H         4.09222152589498    7.64026553761931    5.68300303851527
C         4.38228060568555    9.54173510572158    9.16673148791953
H         5.35301597756718    9.17445868445822    8.81232578867831
C         4.55698755837165   10.87294848019935    9.90003108594915
H         3.57157299783522   11.24356202339613   10.20153338768900
H         5.02337425335997   11.62286101919237    9.26245133087612
H         5.16887521476109   10.74828086991013   10.79252497188432
C         3.78860109847691    8.50576539378270   10.11601533758506
H         4.36551597512728    8.49276257608236   11.04010878911983
H         3.81911945126537    7.50541972445948    9.69097497915072
H         2.75885896164319    8.75727230791023   10.35978705274600
C         2.87221753574934   13.18437183310531    7.47992215180793
H         3.92867320293533   12.92232914757989    7.42801903324256
C         2.06738218432137   12.71912334244965    6.44091127519774
H         2.56292841361091   12.15776632767289    5.64961189050238
C         0.77814245902737   13.36143989430133    5.98234404117077
H         0.27174008012074   12.65792996934354    5.31554004352470
H         1.01100770883731   14.25469443146199    5.39137162821736
C        -0.17125281544976   13.72228225563480    7.13901462606574
H         0.01634317840536   14.73959830695318    7.48544705465718
H        -1.20009430982260   13.68894844479859    6.77437107428402
C        -0.03049871345548   12.76893781901317    8.30317204605367
H        -0.86974938980158   12.08903507041618    8.44810814980223
C         0.80200071754289   12.99833112645067    9.38039087097777
H         0.55912594317309   12.51086265374717   10.32507041998217
C         1.73337568185203   14.17876282618611    9.52218279625755
H         2.40251337789441   13.98228549381581   10.36385889762539
H         1.14651842628824   15.06814223029308    9.77749892865104
C         2.57998400630292   14.44743757744361    8.26279781482211
H         2.07637186158885   15.16163685854921    7.60931003787168
H         3.52412341981187   14.90292681296608    8.56817818947847

