65
CSD_code = VEZJEQ | q = 0 | S = 0 | Stoichiometry = C23H37ClO2PRh | MND = 6
Rh        2.52207149238405    2.36914845897783    9.82373161489901
Cl        4.55499764322786    3.33134250082256    9.62882921168400
P         3.57879205185754    0.92606937921918   11.24483851462435
O         0.01310879199293   -4.13862383943786   14.03784123951432
O        -1.55836643175107   -2.41557992906751   14.05368069752741
C         2.53769644425978   -0.27245572590137   12.16491047719601
C         1.68938075964852    0.24406749629461   13.14517154753921
H         1.71330212479247    1.30217665162192   13.35898837430638
C         0.82357641370541   -0.57006321379481   13.84588194245589
H         0.17379567040929   -0.15618419237195   14.60362535025705
C         0.76734635034924   -1.93085432988160   13.56877022399684
C         1.58394132015611   -2.45174952146400   12.57818942258266
H         1.53127777604028   -3.50569879785057   12.35581246283421
C         2.45808624830792   -1.63211986272304   11.88497929979591
H         3.07248712018703   -2.07603252743343   11.11746547555588
C        -0.22468491332568   -2.78987903200736   14.32230174715070
H        -0.12364257037357   -2.60697893635544   15.40828758214744
C        -1.91740577239619   -2.48162039659902   12.68771505806449
H        -1.42423277680886   -1.69208356416740   12.11057589706263
H        -2.99580727002909   -2.34232319344659   12.65433771882448
H        -1.65538530452274   -3.45365412661530   12.26039860631615
C        -0.69164729027236   -5.02661258440969   14.87741624486984
H        -0.36834626821190   -4.91256673159281   15.91870452702249
H        -0.45667684692209   -6.02906606484504   14.52627621551902
H        -1.77041628258952   -4.85497686951832   14.81985753142766
C         4.81034421858364   -0.18750841035065   10.38149363844729
H         4.90586256881164   -1.11040585129419   10.96630770345154
C         4.21197271324732   -0.49346488491260    9.00708016994554
H         4.06505377012567    0.44657028077510    8.46538789306092
H         3.24781708344122   -0.99320162911670    9.09380318155747
H         4.87873543594910   -1.12803032556483    8.42478405266050
C         6.19810890562159    0.42355675760422   10.21673609593171
H         6.79313439608963   -0.21096332230727    9.56079493557886
H         6.71965171487524    0.50041027347832   11.16767361174843
H         6.13022731689670    1.41125320637637    9.76722531857414
C         4.57445186894406    1.75506861970768   12.58676406993943
H         5.44887917841079    2.12610374433342   12.04120852269645
C         5.01910860130650    0.79935041202008   13.68689309308564
H         5.70167038204579    1.30888547472408   14.36555109226402
H         5.53171812709618   -0.06639629331001   13.27198794000937
H         4.16651991808808    0.44449492600826   14.26330807934273
C         3.84793952199872    2.98032386724763   13.14138067762062
H         3.12122824848582    2.71133380426563   13.90441432331062
H         3.33576724363850    3.50678513713208   12.32950263125382
H         4.56390211014704    3.66577767010159   13.59149095670853
C         0.89230674123686    1.07523859213123    9.43372385694372
H         1.09942730684445    0.06532797163073    9.79124391651260
C         0.49416288898352    2.01204077202541   10.38663993661542
H         0.45757663928253    1.66977047738594   11.41937149375461
C        -0.43664470114124    3.16896185086714   10.08670072526905
H        -1.11918092705700    2.88044431806617    9.28590618458627
H        -1.04650427818023    3.37133603612515   10.96975266361161
C         0.32800388071444    4.45163759715026    9.71077292061242
H         0.53689804739199    5.02021846425645   10.62080019411191
H        -0.29145496634026    5.08674342587439    9.06773279357989
C         1.64243821633410    4.17974926539690    9.01934571980575
H         2.37862762144782    4.97357018273566    9.14558585830157
C         1.82300819679775    3.29257447939853    7.97736125143555
H         2.71552858070067    3.41102649707285    7.36239567521569
C         0.70106080058696    2.51010339002986    7.33391952606999
H        -0.22275282112620    3.08540773860659    7.40737603859365
H         0.92021885623047    2.38531270463948    6.27148289104181
C         0.52260730726039    1.11808442745270    7.96898665374065
H         1.16002316764311    0.40383479337417    7.44069471497627
H        -0.51239236149829    0.77869251140964    7.84613201484356

