61
CSD_code = VEZJEP | q = 0 | S = 0 | Stoichiometry = C26H25CrNO7Si | MND = 6
Cr        2.92190862694688    3.28047015897654    5.41321099138991
Si        1.22114405815573    7.12681672714021    2.47508561982505
O         3.86984858178496    5.52663417503527    7.16196513255580
O         5.32988630563418    2.13012223113483    6.79947151635126
O         4.66301765532708    4.62822817714529    3.35626434622655
O         3.07053203333594    0.52842975670116    4.22271835223580
O         1.35843719849649    2.05348032652086    7.68219733182927
O         0.59873591464492    5.21335177867931    4.80387635191817
O         1.60083362998989    4.89670608332976    0.85024041931527
N         1.64900246180465    3.03948229716545    2.19767932164791
C         3.37454013423972    4.75450601212871    6.46290904016971
C         4.40475941230429    2.55212488698477    6.25935208766063
C         3.99955069076180    4.05676637679925    4.09989763905584
C         2.85985866642578    1.60554468279298    4.55959356318037
C         1.87516565355569    2.55614319182296    6.78569479713928
C         1.40905117991373    4.23727472382498    4.39726215927424
C         0.44260216133082    5.49620486373486    6.18564096337825
C        -0.85638063838588    6.26448404764335    6.37790516816250
C         1.94634816038072    3.51117005651551    0.85533873275441
C         1.38329437635404    4.19780354914526    2.96437682687349
C         1.33253743480890    5.27098802443720    2.12865356144001
C         3.41332181905927    3.36288303870594    0.48619802928892
C         4.24747759414737    2.49891352084634    1.18001663036880
C         5.58157353005912    2.39341798247877    0.82635832809110
C         6.08907504433826    3.15128025643686   -0.21475580462222
C         5.25811186770247    4.01763359574016   -0.90568020028964
C         3.92370728385856    4.12242495880648   -0.55845034388203
C         0.98512800599757    1.83261231284516    2.39681043271848
C         1.22249008629581    0.76106073989464    1.53362288415856
C         0.60911979675184   -0.45795980545523    1.75048494931470
C        -0.24636820658513   -0.63751677372305    2.82362048679890
C        -0.49426362238493    0.42472226182951    3.67685101594186
C         0.10808670202361    1.64935486972372    3.46752670713431
C        -0.61974371269156    7.57783719767058    2.70261349565360
C         1.92231945856659    7.97251365555675    0.91879459211412
C         2.28657240697860    7.60288811607842    3.98777273819781
H         1.29254432034909    6.09565286021698    6.53126609629344
H         0.42565342677371    4.55668449674386    6.75392597783564
H        -1.00373539744825    6.47175950019264    7.43372943556795
H        -1.69671860840995    5.67894456363380    6.01388425388876
H        -0.82339558150615    7.20424038532895    5.83383632710775
H         1.32005681773850    2.99987132823455    0.10376554709739
H         3.85768323334279    1.91354350291947    1.99898694950608
H         6.22492157929074    1.71945632827338    1.37196361179495
H         7.13147662519748    3.07045181684749   -0.48504410192312
H         5.65052390832524    4.61461618192447   -1.71568051436651
H         3.26962847214248    4.80163692902279   -1.08444415235987
H         1.90513958415650    0.87537438334036    0.70511125225044
H         0.81051222584612   -1.27730992355251    1.07642524334577
H        -0.71466008762973   -1.59458740934472    2.99383297629364
H        -1.16720034538059    0.30172394255142    4.51270425622469
H        -0.10689197082792    2.47482904214486    4.13121414425336
H        -1.11221385492257    6.91090418962787    3.40224333763212
H        -1.15257877572432    7.51455854591711    1.75836523224843
H        -0.73039668928630    8.59337758373523    3.07030860202868
H         2.97204527995956    7.72968416541927    0.77946421635997
H         1.83757986975338    9.05335678461369    0.98082834189324
H         1.39352597373315    7.64923498539358    0.02757555843304
H         1.67629849422401    7.90132399879429    4.83337164063830
H         2.93409805700859    8.44039938277433    3.74627829488509
H         2.92262169136960    6.78167438015499    4.30906960970537

