42
CSD_code = VEZMOC | q = 0 | S = 0 | Stoichiometry = C19H18MoO4 | MND = 10
Mo        1.74781217587207    2.29305739989546    1.21727542697753
O         0.11140851929945    2.44878952615714   -1.37483519728604
O         2.74188476427342    4.87359760269643   -0.12585954109414
O         5.03098116326198    1.99473025705840    2.55659838948101
O         7.27859933077414    5.40303262451491    1.66487076269215
C         0.72500333759427    2.38875683918416   -0.40503711229643
C         2.35421000593831    3.91779834759931    0.38241619891614
C         2.24857109801609    0.49645956024846   -0.19814605071420
C         3.29323341931560    0.81965744714428    0.68844048011658
C         3.96355177914618    2.05478429782351    0.45965409528141
C         4.93494683986682    2.51043790278028    1.45556727181890
C         5.81049646961512    3.66273101166208    1.01744229489325
C         6.38657985523349    4.44393217876062    2.20355201564445
C         0.04778646060579    1.57197925331138    2.61061382681785
C         1.22949132000048    0.95147550125483    3.05812928895654
C         2.11154264744725    1.95471430006526    3.51906332564900
C         1.49096889907416    3.19926497688041    3.34671073898546
C         0.20969404204447    2.97791444691023    2.76231770836023
C         5.26974583151791    5.08573472862077    2.99503542294639
C         4.94442038757163    4.63128994315962    4.26531515807923
C         3.92371170349401    5.23261175130784    4.98130736108675
C         3.22058485566161    6.29317407114836    4.43286375181961
C         3.54012429684007    6.74946690934519    3.16460356623295
C         4.56081034400842    6.14952037180752    2.44997676347679
H         7.56873546232724    5.98779357479631    2.37255809699267
H         2.37520784662670    0.73675310644637   -1.25057906748666
H         1.72277722661673   -0.44017541673843   -0.03457801818751
H         3.62074130487549    0.16328137964952    1.49385614401766
H         4.14388860015190    2.36789957233738   -0.56900841891008
H         5.24807642689148    4.34158003221224    0.37523416450267
H         6.64205122116155    3.26449257680864    0.42918574835300
H         6.93448504891215    3.74372967518593    2.85385065569249
H        -0.87394135102819    1.07189113004128    2.34225050627711
H         1.37021355338049   -0.11570404903558    3.18243741190869
H         3.06185108096408    1.78781731604246    4.00636537722851
H         1.85965332764994    4.14829464177281    3.71242807417149
H        -0.58680990681713    3.71214446938942    2.69731851443478
H         5.48870728816298    3.80021681151929    4.68874601427059
H         3.67647100268879    4.87379129651631    5.97029496865065
H         2.42538900423117    6.76340967193146    4.99383939801230
H         2.99356195303792    7.57428445330949    2.73189325642396
H         4.82148136369323    6.51158850848071    1.46653122680473

