50
CSD_code = VEZNAP | q = 0 | S = 0 | Stoichiometry = C24H21CrNO3 | MND = 9
Cr        3.37791537752437    2.79626645382013    3.46417944736470
C         1.72364738291166    2.15917368277709    3.86863718655135
O         0.69904631546474    1.69834097884180    4.14941447515398
C         3.82333686347268    1.79171112013892    4.91386657988339
O         4.04400623517643    1.09861373558217    5.81552309793557
C         3.50256709796638    1.16844082196586    2.65795271922890
O         3.54058970368720    0.10084983989329    2.21478211898202
N         0.10276572910967    6.08965531537959    5.83499440199690
C        -0.17370406125998    6.84851100957916    4.73087911721554
C         0.78912554188880    6.59166746794511    3.78041690639304
C         1.68593740307041    5.63436314105402    4.34697177513498
C        -1.31056665018710    7.80664533641579    4.70030185132566
C        -0.74330184144118    5.99657942781121    6.99845761465509
C        -0.04421149315130    5.24829835295419    8.12906981578169
C         0.60354933656986    3.97965398605182    7.58409292702318
C         1.72480984250335    4.37112977062042    6.62513894547409
C         1.22182555739912    5.34645020761512    5.61644292562774
C         0.92940411547895    7.21111333169237    2.46513986650807
C         2.16889543059787    7.69467172091338    2.04760018631015
C         2.31676995399192    8.26912354253224    0.79989892388936
C         1.22976940329662    8.37256632076942   -0.05270260098719
C        -0.00542329983119    7.89410995936391    0.35058442214055
C        -0.15568103794616    7.31554319480254    1.59755005609413
C         2.80514448508431    5.00460517068312    3.66078825682457
C         4.04184691244426    4.80850101794669    4.29233263108465
C         5.12804359886469    4.25054353130320    3.59145661593416
C         4.98545443924248    3.87916231642839    2.25579069812136
C         3.74555200416771    4.06328606068280    1.61065344012933
C         2.66989694157062    4.60751874697712    2.30401858559347
H        -1.24971186995125    8.41678293259885    3.80356883953361
H        -2.26798373243111    7.28339152127726    4.70346911912995
H        -1.28635398355722    8.46735282896698    5.56775083601171
H        -1.02097734074004    7.00439653289473    7.32483915964062
H        -1.66477352957292    5.46761194710184    6.72163335024351
H        -0.77581578032686    5.01329855930413    8.90273066641391
H         0.72540787423865    5.88432436889384    8.57213777001225
H        -0.13905987610453    3.38144352115302    7.05378567941553
H         1.00598281414919    3.37614081606588    8.39750424724668
H         2.12110913518279    3.48850490050269    6.11195331013920
H         2.54424038246261    4.81643779080250    7.20067314181599
H         3.01650681218076    7.62647369418343    2.71554070704133
H         3.28302941125084    8.64161434951946    0.49059482435737
H         1.34590102421279    8.82210806154022   -1.02782708324864
H        -0.85518302010784    7.96632046608417   -0.31298522040801
H        -1.11440166372742    6.91851128999437    1.89750314714819
H         4.19022412062160    5.17779278175931    5.30000754055964
H         6.09664663539767    4.18408456888082    4.07410914352735
H         5.83902525213900    3.52017726081145    1.69325427798107
H         3.65223644558863    3.83928830973657    0.55442825469851
H         1.73683960142689    4.80434793538648    1.79059530136957

