64
CSD_code = VEZQEW | q = 0 | S = 0 | Stoichiometry = C26H35ClSiZr | MND = 12
Zr        1.87783015778709    9.68556380264644    2.87008333904306
Si       -1.14904431027742    8.52163940945413    3.26531762566723
Cl        2.68624324373090   11.47803726354718    4.18813613282627
C        -2.15758110504551    7.17101471467024    2.35371354153568
H        -2.26716687533542    6.29644836706489    2.98695485259279
H        -1.74247997749956    6.84881668296150    1.40822809122025
H        -3.15438062913472    7.54945903868367    2.15290654823989
C        -2.43955957421560    9.08991051533015    4.56420078409143
H        -3.27892273979169    9.56324467287186    4.06461141831400
H        -2.06856345474984    9.77655347324652    5.31358423538196
H        -2.82489440927598    8.21876911105288    5.08445983906204
C        -0.43656797466964    9.86663065643219    2.12190352239256
C         0.33726875807663    9.56547013395806    0.94732296843727
C         1.15472240179856   10.68393978960708    0.64562404533907
C         0.90510405568073   11.68341747292330    1.62671187219863
C        -0.05626942035730   11.18654855515623    2.53248740059056
C         0.52139762734560    7.97146013483254    3.99352169635255
C         1.50106607530108    7.20778039914645    3.28010214177412
C         2.77637713579341    7.47794373398378    3.83143669882239
C         2.60996384483569    8.40790734851782    4.89661348814241
C         1.23416178606643    8.71781204340729    4.99423845176483
C         0.09252596748276    8.41637192786512    0.00763044240649
H        -0.92714203242745    8.46963179094077   -0.37913086376657
H         0.21675128791711    7.44803875890015    0.48562936984647
H         0.76762690209003    8.46813599007873   -0.84468613998431
C         1.98959574263919   10.92075655687686   -0.58311393030240
H         1.44799833502362   11.55923020742759   -1.28534793280316
H         2.23857625657103    9.99211575212595   -1.09278083585716
H         2.92334115574967   11.42351746925001   -0.32536392954971
C         1.50721967481478   13.05878483814213    1.60989989421128
H         2.58999506156408   13.00394941003324    1.47429695894087
H         1.30867012821519   13.58221117977685    2.54233730984508
H         1.09398551050736   13.64743255001540    0.78740616204116
C        -0.68703207647781   12.02349721865043    3.61136881378577
H        -1.45230483041436   11.46779043139396    4.14402794020175
H        -1.16301597529554   12.89879058675395    3.16352186960413
H         0.06118214641302   12.38837885521926    4.32025974435611
C         1.23393444822242    6.03380192206172    2.37776251347551
H         1.79015349657576    6.08967255572929    1.44025586105977
H         0.17401182196933    5.93816840118150    2.16402906331439
H         1.55013531915542    5.11681228315513    2.88071067794955
C         4.05551633733796    6.75134919681012    3.52256444742354
H         4.90267142222065    7.43848891974932    3.49065766495850
H         3.99564515647587    6.23966629081517    2.56432363984598
H         4.25904256022182    6.00537517210248    4.29473268670707
C         3.72705372730071    8.86359494897157    5.79291381060080
H         3.98013205251120    8.08417402034666    6.51599382381506
H         3.45740350703903    9.76643977836730    6.33754653079374
H         4.62128930658688    9.08021079420392    5.20433122150233
C         0.61344261105142    9.56312335474191    6.07360930683187
H         1.32705537431869    9.72062201165171    6.88085056633559
H        -0.25588521166411    9.05624639039991    6.49161847062989
H         0.30567876590866   10.54512443188281    5.70677935550129
C         3.69588543113176    9.40223020898821    1.69829870207998
C         3.78999260597939    8.44351703006793    0.67554276028624
H         2.92360860631223    7.82416963561253    0.43715913829965
C         4.94983501084658    8.24656256779572   -0.05926997509303
H         4.97959916685460    7.49593978930344   -0.83860054159089
C         6.07372409679510    9.01108423931919    0.20312368371043
H         6.98002744920858    8.86179737175254   -0.36649734987848
C         6.02408888919763    9.96786311609482    1.20142220336549
H         6.89734163928819   10.57050997094987    1.41280486787501
C         4.85803195473971   10.15561335294491    1.93194747684942
H         4.86000658394962   10.91924140204748    2.70967582656689

