71
CSD_code = VEZRUN | q = 0 | S = 0 | Stoichiometry = C26H36MoO6P2 | MND = 10
Mo        0.75115994427871    3.94889856917339    2.12992612412321
P        -0.24424578388572    2.01725409628617    2.91993759539337
O        -0.12512402638768    1.56872672102432    4.47634192865482
C        -0.42890602521678    2.50476157345060    5.48703429386885
O        -0.02146430281347    0.53858903021587    2.29196322164308
C         0.20860485187171   -0.64411044291763    3.04694102117898
O        -1.83439713037724    2.26186129925862    2.75952817758177
C        -2.79246311651705    1.27214819952186    3.09392732461430
P         2.54848239303108    2.95005929809475    3.20800229154778
O         4.09911310049405    3.26736240160633    2.82313245562950
C         4.47807417471067    4.52262534650825    2.31341182688357
O         2.74865430290189    1.36271153667913    3.37611481917219
C         3.41380023993691    0.51322266905331    2.45835227853822
O         2.49750873010965    3.32502993479381    4.78017544739818
C         3.45517082838013    2.81256624161527    5.70003028211812
C        -0.32511977723152    2.97011487261350    0.27368884533042
H        -0.33338786406388    1.88487414262309    0.37501383486392
C        -1.60392322034786    3.45318429363617   -0.23443121917849
C        -2.68348721905800    2.56276406578437   -0.25372548296288
C        -3.93148245470199    2.94515885113588   -0.70191488176725
C        -4.14139866566283    4.23377049124620   -1.16432879641192
C        -3.08259434042401    5.12664694397962   -1.17270520554480
C        -1.83645129209351    4.74731948541630   -0.71337978278816
C         0.95673630812403    3.52986714168260   -0.02380153239057
C         2.01419030484025    2.79452594267839    0.60851529898999
H         3.01857344050530    3.09403626750916    0.31674683038614
H         1.89935605360222    1.71221589218563    0.59440728340559
C         1.27110668322666    4.44701989663260   -1.13178878853767
C         0.66160366430781    4.24531347295162   -2.37177928891860
C         0.98515827232341    5.03669884394394   -3.45733341584173
C         1.93459289817291    6.03762775424568   -3.33569269758630
C         2.56898623879609    6.22840840584421   -2.11985502679101
C         2.24637282006452    5.43699457129972   -1.03327932503644
C         1.37030061557162    6.15293029128418    2.53265645887291
C         0.79422349760564    5.61939398202478    3.72427833382821
C        -0.56676631174602    5.34711147471764    3.47241622582987
C        -0.82485601483722    5.64180147684127    2.12697571968877
C         0.36727332930727    6.15186489034287    1.54857631799225
H        -0.32504564612623    1.98035204506287    6.43826243467095
H        -1.45282549854742    2.87361081879788    5.38427433013493
H         0.26461245832732    3.34579472664276    5.45391199956108
H         0.47424694465750   -1.41783000132431    2.32440636648223
H        -0.68699313528655   -0.94992766424681    3.59107818562835
H         1.02278177890304   -0.49816455688870    3.75607718589471
H        -3.77231430821553    1.73627256096528    2.98098032803373
H        -2.66840441221424    0.92153690484656    4.12251707041519
H        -2.71877593684353    0.41713016285732    2.41782767808071
H         5.32382937146218    4.36841769404824    1.64069096284332
H         4.77471074343681    5.19346417361377    3.12357050755530
H         3.64201538563884    4.96459385403805    1.76794923552457
H         2.69331180094948    0.03280080790717    1.79386437447192
H         3.92678360459643   -0.25100568841581    3.04686642976891
H         4.14618614654041    1.06568300399194    1.86987929565343
H         3.55857544165503    3.54689729248456    6.50004890195979
H         4.41980266470872    2.65927520115498    5.21265348298995
H         3.10537087097526    1.86503405045834    6.11213535761885
H        -2.52842525478997    1.55011813600641    0.09076594381362
H        -4.74600544552139    2.23364680070532   -0.69845894038084
H        -5.11575671644500    4.53708120159206   -1.51918105517508
H        -3.22983779083105    6.13321174140321   -1.53983322399898
H        -1.03349861094064    5.46734376300623   -0.73967777847825
H        -0.07154773739173    3.45913021204975   -2.47715119496455
H         0.49555426371311    4.86840224858165   -4.40577980845065
H         2.18417102302585    6.65925638453041   -4.18309806176093
H         3.32034146176392    6.99886013876130   -2.01680587006969
H         2.74952001796195    5.59943139447182   -0.09117144398443
H         2.32037499084490    6.66416337951818    2.47689776001598
H         1.26446155348266    5.64216366546196    4.70051009397516
H        -1.30454143342736    5.04784684971269    4.20197772592980
H        -1.79992656683632    5.63333683893168    1.66359173606451
H         0.44247282398885    6.62822193429789    0.58114119639240

