53
CSD_code = VEZSEY | q = 0 | S = 0 | Stoichiometry = C24H25BrN2Pt | MND = 4
Pt        0.13340459915657    4.43375769998066   -0.20284876941985
Br        0.93968920116407    6.12377211060514    1.44454185138488
N        -1.45078544197028    5.79188632631029   -1.00778336481051
N         2.91809396757057    4.32988469179472   -1.46641082579217
C        -0.64748198201968    3.16324888575322   -1.55732787621712
C        -0.28489585112034    1.86549934890741   -1.83164640923891
C        -0.97249821862271    1.09911661361580   -2.78680029124776
C        -2.01677585994949    1.62928190449276   -3.49053633669503
C        -2.42520651371825    2.95838925686332   -3.26156117929707
C        -3.48654100248225    3.55298288673424   -3.97311432199632
C        -3.85204927229100    4.84704094116445   -3.73193532495974
C        -3.18376565387367    5.60576556718758   -2.76154438355016
C        -2.14888780097032    5.05766943549298   -2.04854478323172
C        -1.73661485587101    3.72434297568446   -2.28290495381487
C        -2.35865771842145    6.01272790089868    0.12291852421431
C        -0.93503288094466    7.06851346445270   -1.50482143467011
C         1.28254228427092    3.03495763486478    0.66217728110660
C         0.60358571620234    2.41962348815564    1.68638538944432
C         1.19635395050275    1.41709844564933    2.46445785096470
C         2.47855497469004    1.03038680067899    2.20041167980215
C         3.21870325452996    1.63684046852694    1.16519104384077
C         4.54380216042618    1.22656808049832    0.91380294731224
C         5.28091615247039    1.80673910895992   -0.07569694276266
C         4.71772101363386    2.82809268601605   -0.84825628384360
C         3.43068179572852    3.25693138711497   -0.64155926138585
C         2.62502356103299    2.66886428010629    0.37614826392475
C         3.59055694628386    5.59525084857205   -1.19248345159761
C         2.89983709776076    3.99327283337346   -2.88367920870519
H         1.39227050232359    4.52490437919082   -1.05768596834096
H         0.54191378911519    1.40551830968941   -1.30690814548222
H        -0.65967324637382    0.07972044978299   -2.96384429229303
H        -2.54134885507840    1.04365685237964   -4.23189014896152
H        -4.00623401320186    2.96497464586499   -4.71586014288669
H        -4.66454634297618    5.29906147674256   -4.28154214288116
H        -3.50428029789827    6.62266427315025   -2.58675380838888
H        -0.42142662406543    2.71104779328146    1.91529614612621
H         0.63399604040457    0.95824412503167    3.26452776020027
H         2.95202383165963    0.25550775386182    2.78551471308289
H         4.96457446766045    0.44274283436849    1.52671429609714
H         6.29643737004091    1.49443248378168   -0.26777326179599
H         5.32278388669234    3.28452007220810   -1.61809400073043
H        -1.83690360300286    6.54721761035315    0.91797638918421
H        -2.71061041028375    5.04978334771198    0.50489924942986
H        -3.23377850137348    6.60557542546282   -0.17065380323636
H        -0.33066072506565    6.88816778917471   -2.39520708540817
H        -0.31092734245057    7.52976253361814   -0.73842352705602
H        -1.73791763883808    7.76899496785286   -1.75889972490450
H         4.65000058974592    5.56546143466914   -1.46283242523300
H         3.50176694266165    5.81984911817842   -0.13132594867026
H         3.10286577812252    6.38746799931779   -1.75869047234784
H         3.90555282398201    3.89109711799323   -3.30183266190691
H         2.37587460331957    4.77855230325635   -3.42738156472963
H         2.36097335172103    3.05686883062858   -3.01730885762950

