45
CSD_code = VEZSOK | q = 0 | S = 0 | Stoichiometry = C20H18N3O3V | MND = 5
V         4.58061133942121    0.20416709057015    7.15977416320358
O         2.77617258196881    0.15927753696677    7.55457751023996
O         5.29334855591836    1.51571972750893    8.02843995663629
O         4.80260861024551   -0.57361539309408    5.64014532710809
N         3.98747479710991    1.86567521594427    5.84510853983148
N         4.95489707986332   -0.99602973473881    8.18120602582850
N         5.18564030355111   -1.89522849289301    9.03275206205458
C         2.55999528023634    1.71004702241111    5.76966229562747
C         2.00839267662243    0.82983870456147    6.71968935182184
C         0.61676017073492    0.66636565040474    6.73331873348570
H         0.18726054911543   -0.00364470504668    7.46350536954318
C        -0.17465005339076    1.33301540735457    5.81759901483588
H        -1.24527550695831    1.19042360317771    5.83886983708614
C         0.38869474228952    2.16517944527429    4.86448098066146
H        -0.23493292381098    2.66469646911212    4.13868150451522
C         1.76199391390940    2.35455249910886    4.84290735879563
H         2.20914573410500    2.98858082431552    4.08978537828533
C         4.43999797167330    3.05568984113137    6.50086724623883
C         5.20050276291026    2.77262465440897    7.65246667797162
C         5.76770326435088    3.83212315515929    8.36539186895146
H         6.36557820187080    3.61588734729879    9.23875669844714
C         5.53481942501983    5.13314078756399    7.95800299072447
H         5.96959641585540    5.94937174818672    8.51603207508805
C         4.73587918366258    5.40160293971890    6.85936462556175
H         4.53917122938415    6.42258756571797    6.56912168024153
C         4.18331008031433    4.36053420442121    6.12656423542307
H         3.54417806598674    4.57733334981055    5.28298518023905
C         4.68214217726929    1.53027387960644    4.63857910066533
C         5.05441061918301    0.17118772113044    4.58274113904736
C         5.70116027849039   -0.30800811695502    3.44282465146417
H         5.98819093406113   -1.34887962311542    3.40273368000316
C         5.98919660195199    0.55891732749429    2.40258078260469
H         6.49401266135513    0.18427750135973    1.52437304360352
C         5.65453430947062    1.89915499976030    2.48418074969685
H         5.90014965111133    2.56947604720613    1.67438683616585
C         4.99635061664150    2.39006777468596    3.60442095752914
H         4.75234216859504    3.44055609597862    3.66716193629999
C         5.40647072330849   -1.55602335661750   10.42469060716358
H         4.57782621313273   -1.90984207729881   11.04311835177154
H         5.47094312592378   -0.46956066798442   10.49412409707164
H         6.33531632554833   -2.00588492685408   10.78132493040882
C         5.02423607428879   -3.29650888059397    8.69917979621934
H         4.85690970569860   -3.36651300879968    7.62400290187648
H         4.16595602488444   -3.72123837400720    9.22598240580729
H         5.92147733712518   -3.85606877935153    8.97133734415329

