52
CSD_code = VEZVED | q = 1 | S = 0 | Stoichiometry = C22H20ClHgN2O4S2(1+) | MND = 5
Hg       -2.59131969622123    7.01179237228344    4.89662973507654
Cl       -3.99644530325558    9.33751371571224    3.94141209136616
S        -2.05181365151376    6.15764027109401    2.37371439393037
S        -0.56891350449776    5.11149457920320    5.25072883984753
O        -4.41283726850884    8.61681681391713    5.12564892148573
O        -2.57119667100820    9.06828340819116    3.82254471200695
O        -4.63408287918380    8.75358742586939    2.82453169669658
O        -4.23201429380696   10.69651445083338    4.07462198606506
N        -4.47729660038892    5.86271040963814    4.20725100207387
N        -0.92510497172070    7.96194009839493    6.15838273686148
C        -4.80807258025569    5.86023514811178    2.93223817985728
C        -6.13610189464147    5.67802824581871    2.50179015350050
C        -7.12830189060246    5.52898271817623    3.42928113829575
C        -7.76625618840269    5.37738235465504    5.82037335123091
C        -7.39136409988304    5.39165939858548    7.13559804900711
C        -6.04075094299538    5.54512581800265    7.48582235602004
C        -5.08309943879759    5.68811943747171    6.51782287342527
C        -5.43968842103483    5.69444470809494    5.15835192616805
C        -6.80388626666311    5.52475454563429    4.80113875467490
C        -3.78180714093557    6.07722969520310    1.85467604346425
C        -1.77571478301081    4.38219771231802    2.81477860986362
C        -0.52772337303557    4.20420311206419    3.65597880062292
C         0.56376036558129    6.51210987665448    4.88430199633291
C         0.30995384290836    7.69786801236550    5.77112302813523
C         1.39978611320211    8.50035744929281    6.14703977229733
C         1.18225755645203    9.60953991782767    6.92017858487668
C        -0.41676582273027   10.99733907472409    8.20252148502475
C        -1.69566420707450   11.20937585520936    8.63714511701087
C        -2.72196345679715   10.31929971221309    8.28073352976532
C        -2.46669680050522    9.23935343194456    7.47826256308278
C        -1.16895972033153    9.01732785760280    6.98262835350125
C        -0.11795646995600    9.89525538204627    7.37512359166656
H        -6.35159767062724    5.68972924526622    1.44564686290658
H        -8.15855801252649    5.41864186029280    3.12598246584567
H        -8.80157060582497    5.25745042268564    5.54010596741925
H        -8.13034394546219    5.28459789475226    7.91410006805050
H        -5.76119344527594    5.54826717684365    8.52804370358461
H        -4.03016235481888    5.79581642099529    6.78629952077469
H        -3.98038197775490    7.05575948097513    1.40498534993526
H        -3.86043911957469    5.30844764669036    1.08326508445568
H        -2.65839846363058    4.02505442174534    3.34648935591138
H        -1.65934266773889    3.83442992947884    1.87882764471893
H         0.36346267329225    4.52682496836175    3.12100227113342
H        -0.41960827651433    3.15369351578793    3.92816660189886
H         1.58187485358696    6.14738656341493    5.02526497932436
H         0.41710704307645    6.79423640486186    3.83744108855916
H         2.39012737519746    8.24400230433787    5.80579579535693
H         1.99861249900143   10.25937537290348    7.19779389916528
H         0.38389966058540   11.66429826479414    8.48364362504042
H        -1.92440853340224   12.05755248903248    9.26329089797189
H        -3.72255750474750   10.49060320449433    8.64571980176782
H        -3.26268106720671    8.55554940297938    7.20326064286418

