68
CSD_code = VEZVEB | q = 0 | S = 0 | Stoichiometry = C28H38SiZr | MND = 12
Zr        3.84087615311700    7.40773616688466    4.06541228742123
C         5.61690046587055    7.50216196698731    5.32876266878256
C         6.61531926483734    6.56886592372763    5.62354696250395
H         6.60750768976527    5.59185208103345    5.13988887283221
C         7.64097295593320    6.83336653497549    6.52331772649925
H         8.39858960660027    6.08609780770476    6.72090116934680
C         7.68932827690180    8.05366116592404    7.17133087849361
H         8.47902038546771    8.26437696032351    7.87911261054338
C         6.71907975644035    9.00630850741641    6.90687771515882
H         6.75935636371953    9.96319949277621    7.41305156314328
C         5.70113210618167    8.74367152450152    5.99821163702437
C         4.67779178195600    9.81353978823413    5.66372517039969
H         5.08143569820571   10.41306758653937    4.83621248624115
H         4.57618562255624   10.49638400112635    6.52238785262372
C         3.31873828454072    9.20605371480670    5.25196241864313
H         2.71089270910528    9.99178201077311    4.76407084367981
H         2.79620422002356    8.95058148601233    6.18936175477249
Si        2.78146270199638    5.43005586308436    1.65938347089926
C         3.83898223712112    7.01199836716626    1.64043366582894
C         3.32231864269996    8.33586709917030    1.82757074315638
C         4.37728630823843    9.18961528051106    2.22893036135806
C         5.55044704240206    8.40224020558178    2.35867928333428
C         5.22185695806891    7.07045343237681    2.01172528264402
C         2.48191098992975    5.41975413040028    3.53339032887421
C         1.59647710382588    6.30180414982163    4.22867536206492
C         1.98801229849173    6.35887363551888    5.58325721207947
C         3.14961116170397    5.55623672072903    5.74552073937947
C         3.46087378835776    4.98635122733500    4.48979634996705
C         1.97202422394150    8.87442868235957    1.43985335757618
H         1.50301535723925    9.41278547717100    2.26928142962759
H         1.30605443643821    8.08613782887312    1.10816998426706
H         2.08052925351202    9.58428547727512    0.61547023033825
C         4.29219180193303   10.69069074199470    2.22493248342409
H         5.21268744007959   11.14099152634181    2.58925248956694
H         3.46197587728785   11.05690070608120    2.83016784385863
H         4.13378296124342   11.04561841534933    1.20326136484268
C         6.94374114571100    8.88949237590345    2.64157137111261
H         7.51381588759821    8.97301001337039    1.71271037004285
H         7.47291647293642    8.20106151176630    3.30184977202070
H         6.93273499846239    9.86784606404717    3.11762995944821
C         6.27586495820670    6.01426081461087    1.81863867700185
H         5.84876129231588    5.09025294509798    1.44296991950893
H         6.82435476468655    5.81710745164459    2.74407095453649
H         7.00747202032740    6.36125038354367    1.08443174239970
C         0.30937481315201    6.89848791199083    3.72646975566842
H        -0.52827087067656    6.51492245242716    4.31349550193418
H         0.13179905463362    6.63376265676601    2.68969759077675
H         0.30384299070875    7.98834497709282    3.82461432325660
C         1.17651231529486    6.94377711461404    6.70535462403990
H         0.45516063231389    6.20496083591230    7.06542554943042
H         0.61782359468329    7.82070801169504    6.37960729163863
H         1.80989940276924    7.22198855797189    7.54648508407936
C         3.80846721387148    5.30531249943353    7.07421921262584
H         4.09428027967387    6.24812100091500    7.54771423879312
H         4.70723632677751    4.70202703768256    6.96928073394486
H         3.12381830914710    4.78238682046865    7.74545415443939
C         4.47904284873010    3.90207731616902    4.25547306608148
H         5.28622963941189    4.21773109026534    3.59272746492170
H         3.99473539279129    3.03280782803512    3.80911505187779
H         4.91841981230635    3.58210360276590    5.19884773853127
C         1.22009901110214    5.43131830738131    0.54133125409005
H         1.52810806733140    5.38652172616876   -0.49833941375206
H         0.55966143257518    6.28332778767803    0.64144572190709
H         0.63200499737903    4.54187388166833    0.74486984940609
C         3.62234862807243    3.85487336647345    0.95564737264211
H         4.45824406605385    3.47846372096305    1.52939892468855
H         3.97068885972249    4.04524198619013   -0.05478261661318
H         2.88817971619419    3.05768226239356    0.89738815832008

