91
CSD_code = VEZVAA | q = 0 | S = 0 | Stoichiometry = C28H46CdN6O4P2S4 | MND = 4
Cd        9.61416956988054    2.39180737945133   19.65983046164688
P        10.70332012200280    0.04451694398153   18.13380142447075
S         9.32332894573289    3.90740477033249   17.65737688411410
P         7.86678499747149    4.86483607407656   18.67682598205925
S        10.49860972961403    0.01618462924779   20.13712155785430
S         8.41578661488626    6.12787182728676   20.09331173249629
S        11.38036614174268   -1.48535407526122   17.12482833398173
O         6.91383168074682    3.64886961824863   19.11957281941527
O         9.19635768967914    0.49952454090900   17.70238532537020
O        11.48212724817508    1.43626284987491   17.80489639432449
N         8.00434103639148    1.92054956162039   21.23350569159918
O         6.89650630076272    5.59073820183026   17.62000343083262
N        11.62049130881003    5.49521117680125   21.84049320525097
N        11.17512874360569    3.53948361788180   20.85163208499123
N         7.35896018059343    0.34252143477914   22.67662654703958
N         7.30589993799523   -0.17175727066043   20.35503761785639
H         7.47011278870342   -1.15085398307048   20.54233653872984
H         7.70645273918894    0.12516317927599   19.47091796381532
N        11.56813542836955    5.43279786629998   19.47055648865383
H        11.18266621492968    4.90449018043686   18.68918791864738
H        11.32064661723654    6.41195347954279   19.44559332752295
C         7.63044861919306    1.46975864355557   23.42868312997716
C         8.01947808194948    2.46074651495756   22.50492239887851
C         8.30877313668872    3.74843209055401   22.93469239716461
H         8.56377133284555    4.52434518531108   22.22963718990767
C         7.59974445808722    0.67378680025876   21.37962451610283
C         7.56566831484288    1.72769587060805   24.78614578847500
H         7.27880559572867    0.96870830705698   25.49818463121181
C        11.26253906582716    3.33119879771688   22.21744515115474
C        11.40564066325347    4.83046206096987   20.67385537285539
C         8.23423112298407    4.00172256509457   24.28973603933967
H         8.45319004535195    4.99368893981304   24.65345555905012
C        11.52885805569348    4.56142608340534   22.85270086490461
C         7.88010385642064    3.00882087375082   25.19990240598542
H         7.84084400764899    3.24706019837366   26.25187945428035
C        11.14269501216511    2.16620018082921   22.96279706770683
H        10.96769612898569    1.21630158424183   22.48003092242119
C         6.95875246794639   -0.95312867472695   23.15006022822753
H         7.74806201063561   -1.68852737268134   22.97188813357606
H         6.04519190126114   -1.27633571865786   22.64659585879546
H         6.77064196179246   -0.89337028554155   24.21927609368088
C         8.70047585554659    0.28422477809849   16.36738172940888
H         8.78945175802312   -0.79073875618233   16.15361204178064
C         5.52557060294400    3.81151527087971   19.45301230735934
H         5.08700657537505    4.52142009556030   18.74042599317677
C        12.88929773359295    1.44479311881640   17.55871900282186
H        13.11579252943569    0.62764217492488   16.85667415860780
C        11.50927393333484    3.49237971687266   24.95681886718032
H        11.59563244255747    3.52956334258290   26.03219528893695
C        11.78917205624368    6.91604267491696   21.96693083450598
H        12.66554601045748    7.24863809074591   21.40670409758725
H        11.92519012875075    7.16134905984339   23.01705663684030
H        10.89948804908972    7.43216116992283   21.59506747825730
C        11.65027439445886    4.65830554459431   24.22703283655980
H        11.84778503782376    5.59982967885517   24.71675395563059
C         7.10401321485568    6.94393560666107   17.21430723645803
H         7.48807606303092    7.50244240346715   18.08129058931259
C        11.26660243963965    2.27053905934074   24.33477537125227
H        11.17467793531340    1.38284441592446   24.94196810741780
C         5.74804294582819    7.49659355685574   16.80073727220357
H         5.35168877528272    6.91930437848024   15.96876329049508
H         5.85218198114070    8.53450191860725   16.49850340215950
H         5.04952136792915    7.43918069235530   17.63212701668074
C         9.50581183150017    1.06954098526422   15.34503716078855
H         9.51864005977999    2.12470217614450   15.61152122948647
H         9.06468800722162    0.94805171177392   14.35897500645385
H        10.52835855757296    0.69818473217757   15.31753937047338
C        13.64391732522909    1.22115650964180   18.86154038631070
H        13.33031288739889    1.96022579937292   19.59936014496374
H        14.71442927218074    1.30403572227315   18.69431169906898
H        13.42326619977837    0.22695366561375   19.24904810617558
C        13.21440748233089    2.79174362823620   16.93030238765026
H        12.57484654945704    2.96506383101549   16.06848389412171
H        14.25363791492198    2.81015214388431   16.61433220654497
H        13.04363985511716    3.58370302343519   17.65674371503794
C         5.36706624356815    4.34418924623118   20.86874816892251
H         5.81563320081073    3.65571134601065   21.58090483421735
H         4.31159740817457    4.46526389965462   21.09941290408906
H         5.85969358963096    5.30908505190869   20.96703414884590
C         4.88257253335354    2.44292607187395   19.27957427648547
H         4.98845457085342    2.10514836918371   18.25179046202040
H         3.82586277017584    2.50027646514972   19.52654101665298
H         5.36934247491281    1.72526173016870   19.93557119707873
C         7.23889437765794    0.70979824652290   16.39096354906232
H         6.67648603348061    0.11289353349188   17.10681485393379
H         6.80148366442781    0.58259493759406   15.40459480309688
H         7.17665707832339    1.75894284023606   16.67703589919745
C         8.11933209622757    6.99526571668516   16.08308672978374
H         9.05960562331741    6.55530499557393   16.41060800271607
H         8.29198934301953    8.02571507971714   15.78533833996273
H         7.75365134283046    6.42932590081871   15.22947305801008

