74
CSD_code = VEZXAZ | q = 0 | S = 0 | Stoichiometry = C30H40N2SiZr | MND = 13
Zr       11.01191811245601    7.74083639271917   10.83507499923676
N        12.09536580806139    9.25494829414137   11.79600814007413
N        13.24081265886230    7.39213657896529   11.85327809465320
H        14.05082585057586    6.89894009435194   12.22532980157436
C        11.15236502497883    6.40163093924029    8.74872545865167
C        10.41987331771849    7.58569789335760    8.41203757676088
C        11.29862831042934    8.69550473970168    8.48781424638212
C        12.58048729177120    8.21593272403557    8.87582573302673
C        12.49470727948696    6.81468578735006    9.03065904797820
C        10.02318092746300    5.46536741802675   11.18303400655664
C         8.99772661711900    6.42688742850898   11.46610184595808
C         9.35341440540930    7.12069914234129   12.64995610314403
C        10.59653128849419    6.59672418175442   13.10679283588024
C        10.99846966161810    5.57588339221560   12.22040723567745
C         9.09066395048339    7.63480639701315    7.70863935268055
H         8.44040184050967    8.41176330824846    8.11024878017390
H         8.58582357666362    6.67513631781738    7.75538804723402
H         9.25314468642279    7.86714521435298    6.65286509034258
C        11.00146252788225   10.09983740467733    8.04006734531288
H        11.48511874388676   10.83012531977438    8.69013778764879
H         9.93064224363408   10.29503817366114    8.04785818935145
H        11.37014296923051   10.25935507842032    7.02333799915453
C        13.81837829847490    9.06767068651413    8.94830825445166
H        14.58478734899129    8.59988533806434    9.56522710358954
H        13.58722788434623   10.04650334606958    9.37159464201563
H        14.23482428891224    9.22692742870287    7.94998134149645
C        13.67344203580905    5.88976747378122    9.16827039883941
H        14.60127131731451    6.43627607552297    9.00878311785900
H        13.61303473891708    5.10542380613457    8.41407009340967
H        13.72740573141243    5.41510254161093   10.14725880311174
C         7.62600784844801    6.40150315763375   10.84515074892140
H         7.22085415931814    5.39026630743755   10.91379503484835
H         7.62991339195390    6.68565463205379    9.79420755336155
H         6.94840619044248    7.06159017172830   11.38261337361155
C         8.53325214511001    8.10344395243498   13.44158644889444
H         7.66186823837788    8.44038288309329   12.88452982608995
H         9.12539047654422    8.98450230166944   13.70169083717941
H         8.18865376623310    7.64441525808590   14.37181577415580
C        11.24401240017268    7.00443120840761   14.40164072647130
H        10.64133951261964    6.67689290429678   15.25281262311171
H        11.33844821185833    8.09183992757590   14.46188222807049
H        12.23674674153865    6.56978823706171   14.50124636392227
C        12.08277756595947    4.56730910061584   12.48822420329193
H        13.00553372217353    4.77023810117202   11.94523655141299
H        11.73410329162940    3.57599694602622   12.20432006736161
H        12.31998735921296    4.54649028389811   13.55097934859660
C        11.53989647858671    3.28160424466188    9.36841126586848
H        11.04794648858974    2.42567453057012    9.81932764520229
H        12.48899828910629    3.41727923991949    9.86783186205586
H        11.74356482425896    3.02650709918893    8.33337708907564
C         8.85561734762710    4.14334529910659    8.48935733901832
H         7.95874159868655    4.73836695435658    8.59899169949942
H         8.62129181276194    3.14382123609070    8.84006150724106
H         9.07942011842968    4.06956022748382    7.43010219040886
C         9.67656820265676    9.55542690312731   10.86758940769223
C         8.32956995112714    9.73145549941376   10.52652869719422
H         7.76284334451889    8.90195159982059   10.11688673364913
C         7.65205113312508   10.93335621964671   10.68901200951048
H         6.61122139014025   11.01183453031476   10.40190687559588
C         8.30117567964186   12.02662449950828   11.23268972432442
H         7.77427143347491   12.95807176756848   11.38569452363051
C         9.63435682422321   11.91407908735661   11.57945614383863
H        10.14138975739118   12.76295299506141   12.01689962727280
C        10.31478129730014   10.71478510162956   11.38353840835540
C        12.60676101645338   11.63698960146885   11.71633856513901
H        13.66533721283432   11.53150231132060   11.86756895069161
H        12.25472338209042   12.63778815255639   11.54567038099586
C        11.76321101868450   10.59224217255468   11.69062717686214
C        14.25802337531562    9.29096161952073   13.08466027736592
H        14.71004648448201    8.54200846782273   13.73432141620721
H        13.82486964829152   10.08049559538489   13.69464474949050
H        15.04381010169447    9.71948025216019   12.46262410686256
C        13.20016802969873    8.64822179512899   12.21728417603881
Si       10.38366999988487    4.80812870698738    9.44148426938635

