64
CSD_code = VHTDCO | q = 1 | S = 0 | Stoichiometry = C29H29CoN5(1+) | MND = 6
Co       -0.00038004360102    0.60802422844091   -0.02316964291021
N        -0.85972016249201    0.12086360392499   -1.59972619702962
N        -1.55803832372689    1.11639786776677    0.85741208696953
N         0.86899160031388    1.09360404835366    1.54439975260672
N         1.56152964384875    0.10585158858109   -0.89462948223059
N         0.27366451764776    2.56675842370718   -0.74814578938347
C        -2.02441095536618   -0.40995648128114   -1.60027250720479
C        -2.60325094443890   -0.69808616899090   -0.23461266343795
C        -2.66956989229057    0.50922821000633    0.67181351232089
C        -1.24348468605977    2.10822449387047    1.78683091236689
C        -2.08252158661963    3.10467457938823    2.26270652631625
C        -1.59230991218009    4.04882905753231    3.15135731456387
C        -0.26464504566952    4.01175280948575    3.54187803847724
C         0.59259057488812    3.04016171457519    3.05500602980615
C         0.11823942349933    2.06040439184044    2.18390221477060
C         2.00335356301365    0.55422530644473    1.96212646053890
C         2.80763420618171   -0.19301901600548    1.09778172217730
C         2.64159317536493   -0.35075534147575   -0.28033901404901
C         1.37868915546754    0.26874385601799   -2.25363309320836
C         2.36942715827292    0.52112216279601   -3.20155537257921
C         2.02413051547393    0.77191977125874   -4.51828119446324
C         0.69706864524897    0.80804427410073   -4.91091043354125
C        -0.30899053507124    0.58934347225854   -3.98275004373287
C         0.02094441491308    0.31004583668691   -2.66507734402594
C        -2.77371820500264   -0.90882890118062   -2.78799866400028
C        -3.95533551219755    0.77288768051618    1.37783849022990
C         2.45512044392635    0.65322384279884    3.39144813115107
C         3.70864094181030   -1.11803707255297   -1.00801190773865
C        -0.34847395922410   -1.16466777385180    0.59539496752958
C        -1.57497391781822   -1.61847182424921    0.43015310225627
C        -0.71496987531701    3.23388837239410   -1.33847923695620
C        -0.56118057993882    4.49687263541258   -1.88110166877325
C         0.68038375605760    5.10767493125065   -1.81002929800244
C         1.71157398034743    4.42108296117177   -1.19038563717559
C         1.46253151103345    3.16065931151883   -0.67697683445222
H        -3.58046392782805   -1.17013511430338   -0.32119478930800
H        -3.09518863875753    3.19250027516924    1.90507640746488
H        -2.24311604100715    4.82778740102354    3.51501450945189
H         0.11750607540262    4.76411289664878    4.21417320861552
H         1.63614045372910    3.07995318712061    3.31763572759098
H         3.68055006641690   -0.65406233710849    1.53228064512772
H         3.40481021948120    0.57282635725593   -2.91022503129686
H         2.80201929398580    0.96774106623981   -5.23980139989817
H         0.43982464664005    1.03360522029972   -5.93340598868134
H        -1.33782613973564    0.69950752351013   -4.28363167032068
H         0.41255656831446   -1.77945607956938    1.06025906242192
H        -1.92385208810687   -2.59625298040736    0.72650141243688
H        -1.67640914182355    2.73947287796672   -1.38237506924688
H        -1.39822416205140    4.98890506232526   -2.34979666699109
H         0.83858702270625    6.09090966082635   -2.22495127874466
H         2.69597333072111    4.85221797952475   -1.10532350619937
H         2.25074496094398    2.60442154291834   -0.18923442334581
H        -3.38699484201723   -0.11521688952280   -3.21695630864730
H        -2.08669276185188   -1.26421296200297   -3.55413838822308
H        -3.43745030046751   -1.72171797535358   -2.50391707595836
H        -3.77123657836704    1.12904467933592    2.39009147849251
H        -4.53756250839434    1.52805281845681    0.84810993054645
H        -4.55494787072697   -0.13275092926915    1.42550443974687
H         2.90497366056405   -0.29069771861410    3.69034868112257
H         1.62184681430017    0.87096984694890    4.05422758106911
H         3.21445425642942    1.42542356299169    3.51014279798257
H         3.32878008035609   -1.54001336684198   -1.93466290774680
H         4.06393252992008   -1.92628688003438   -0.37300743419719
H         4.56463193092891   -0.48223557804601   -1.23180718045030

