61
CSD_code = VIBBIS | q = 1 | S = 0 | Stoichiometry = C27H31N2Ru(1+) | MND = 8
Ru        2.41978791089716    0.06339077759612    5.15707741097386
N         2.28953194310833   -1.59720846152911    6.16699881590594
N         2.18123447675423   -1.00983984004556    3.54910008503312
C         2.38983179396342   -1.34150752551637    7.55584685861834
C         1.22566801142852   -1.07100373380642    8.28727199191623
C         1.34062665198323   -0.81322173187549    9.64564986637020
H         0.45009704634753   -0.60593414236776   10.21922866806420
C         2.57697890025788   -0.82584585347581   10.26690080006286
H         2.64945888740384   -0.63065896430413   11.32502113920159
C         3.72082442917621   -1.08213713300807    9.53207112949611
H         4.68496290009785   -1.08459975418004   10.01729781218329
C         3.64791011287509   -1.34485723431949    8.17135841133854
C        -0.11124765611733   -1.06012815185269    7.60692889623951
H        -0.02225787812275   -0.71768382935910    6.57018679704031
H        -0.80436907310409   -0.41324407315822    8.13811267582240
H        -0.54128934872814   -2.06174843044267    7.58785715683522
C         4.88563020965781   -1.62417390619845    7.37086701834320
H         5.74332965220929   -1.11784082241020    7.80607579294309
H         4.76536900843120   -1.29951826325298    6.33207752227078
H         5.10393569966453   -2.69218174202175    7.36142770469401
C         2.12672957177498   -2.86008276061863    5.78287122188443
C         2.07376904992700   -3.94709495907424    6.81677494906986
H         3.00087002832285   -3.97620006944697    7.38634555983212
H         1.91913864501705   -4.91511964537942    6.35172794295440
H         1.26726294320282   -3.76380541874380    7.52426298172083
C         2.00122291633908   -3.21039996757705    4.43972798024092
H         1.87299615672813   -4.25605663579026    4.21039459243701
C         2.02387279982338   -2.31812490516596    3.36926835551213
C         1.86585059604408   -2.86030503574803    1.97846779906136
H         1.01992066813014   -2.39233399928157    1.47860964228515
H         1.71209385734055   -3.93419777457175    1.99788284632304
H         2.75116496677781   -2.64431427632162    1.38304818182805
C         2.18588357456563   -0.18420265640154    2.39909819788740
C         0.97950914965641    0.36196070556954    1.94145050997821
C         1.00447683951618    1.17915962480600    0.82043670718750
H         0.08067119613623    1.60387035313249    0.45820243737814
C         2.19337251454079    1.44694960098989    0.16520126678024
H         2.19559593073829    2.07869094799057   -0.70878419432054
C         3.38000254549272    0.91081251217627    0.63275451926200
H         4.30727805710999    1.12621651395459    0.12406901723378
C         3.39708429628609    0.08890171425257    1.75070722903094
C        -0.30636376136675    0.06601130411888    2.65518244232939
H        -1.01563485579045    0.87756738881422    2.51575483715840
H        -0.13667445417859   -0.08312915159478    3.72692274699272
H        -0.76279369559464   -0.84311564309004    2.26319427766269
C         4.68126144466262   -0.49435559051127    2.26191815971251
H         4.64472665898534   -0.63854496972426    3.34683031824778
H         5.51864731322168    0.15337229008583    2.01600013100846
H         4.87080928324321   -1.46563300284367    1.80473083138500
C         4.04521903557181    1.62144390166580    5.43823260842086
H         5.12605151055096    1.54789782620982    5.37610339118654
C         3.40582260071689    1.52066818841630    6.69614616065585
H         3.99309125813142    1.35381796848525    7.59101657329803
C         2.02264978865500    1.68810594279407    6.79220689934634
H         1.53978025335151    1.65011426023804    7.76123866011435
C         1.26072184879783    1.95883710582352    5.63147579007599
H         0.19532858468879    2.14527687939538    5.71822546356152
C         1.92235158087377    2.22408763498772    4.40960616158845
H         1.36291397522265    2.59546003152917    3.55949643401708
C         3.30549498057236    2.05650381769187    4.31364854904142
H         3.81601666832129    2.29833276413161    3.38929526734342

