80
CSD_code = VIBCUF | q = 0 | S = 0 | Stoichiometry = C41H35FeNP2 | MND = 8
Fe        4.23534015501575   -1.66607329435813    3.69673710411447
P         4.42527029850616    0.43920318708340    3.87932912136003
P         5.96078500457300   -1.64864417135095    2.47003808539582
N         4.61627523888765   -3.72813984865195    7.85441806724067
C         5.61264583147925   -1.92285435992211    4.96985419267151
C         5.99989496583680   -3.17714545714440    5.77411586539510
H         6.43965180199217   -4.03206693665628    5.26084928361335
C         5.24371445356640   -3.49929815837784    6.91802475673415
C         6.68090026923266   -1.82654920125668    5.73330539737260
C         7.80156988421548   -1.19372013997080    6.33190032798380
C         8.76753259078981   -1.96053276903036    6.99316019186393
H         8.63800077958899   -3.03219193678610    7.04999213075988
C         9.86988020655519   -1.35770733395457    7.56264738022072
H        10.61040241132924   -1.96091946578316    8.06854034190542
C        10.02979853008102    0.01787458914414    7.49310856129390
H        10.89237775909628    0.48747599465722    7.94251312841666
C         9.07198932825557    0.78878525854551    6.85231232356150
H         9.18580034163354    1.86291505537533    6.80673934633591
C         7.96887471254096    0.19483781705699    6.27474142118405
H         7.21110795443008    0.79816434650154    5.79616317541571
C         2.83479471729607   -2.83810202437176    4.82364930535824
H         2.87531756155323   -3.09464349595957    5.86816665427493
C         3.37288127367488   -3.60221942846214    3.76527484025570
H         3.85248068593746   -4.56129969148043    3.86355926072995
C         3.01557581869192   -2.97017909127768    2.54575279063488
H         3.19565751768386   -3.36333746372211    1.55811293910147
C         2.29423503343263   -1.80209609819052    2.85066786547446
H         1.78772106451183   -1.15518597847614    2.15302702559032
C         2.19427090434066   -1.71501008059542    4.26880615041573
H         1.61864839067258   -0.98004229446053    4.80800979885806
C         5.93499938517723    1.04854130282298    2.96628979555595
H         5.61201374640650    1.38498848418668    1.97714629965911
H         6.39079156012952    1.89634950653982    3.48537098597608
C         6.92292277826804   -0.10561504532589    2.82073785160372
H         7.44907375317066   -0.26182341393415    3.76448240091700
H         7.65237497286388    0.08495770801358    2.02614135690720
C         3.08896455395667    1.48137721704102    3.20580496169678
C         2.93874445660256    1.66130491661481    1.83375294155569
H         3.67565795512724    1.26242240634662    1.15105883289461
C         1.84597057552499    2.34302786443561    1.33150087708346
H         1.74480670516393    2.48415703351018    0.26492790799290
C         0.87832608330481    2.83733396037269    2.19086451062384
H         0.02389273381401    3.36728917769474    1.79686200817463
C         1.00596423245454    2.64044787828668    3.55587190840691
H         0.24819524950989    3.01387139038412    4.22915606233108
C         2.09965464561508    1.96146286444872    4.06041303817188
H         2.19492916197701    1.80441842670719    5.12614008089002
C         4.59678658607632    1.15339738147234    5.54568501361950
C         4.94032514743277    2.48632136539693    5.75502065982404
H         5.09157633272124    3.14517650740377    4.90947960037235
C         5.07747792315129    2.96692373024226    7.04386797461597
H         5.35163746424681    3.99945902746974    7.20653233937983
C         4.86545572813957    2.12694305635714    8.12654818086206
H         4.98514656958865    2.50552226437367    9.13092259461725
C         4.49362351575313    0.80860500623675    7.92184770913830
H         4.31834265041164    0.15440941709485    8.76245599202873
C         4.35374833649931    0.32449085198981    6.63400219731607
H         4.07258147714544   -0.70345769717391    6.45361764256201
C         5.81586197746211   -1.52633867368841    0.64973591716156
C         4.59143450059920   -1.16766285585970    0.10309117551144
H         3.75354067983489   -1.01769851646018    0.76886113957625
C         4.45425700316853   -1.01623386895684   -1.26512148745414
H         3.49926232034455   -0.73631807988775   -1.68637888661850
C         5.54316517148663   -1.22958168353770   -2.09406000569778
H         5.43894784912637   -1.11641712550167   -3.16312869399020
C         6.76723373319974   -1.59282103884224   -1.55367280604608
H         7.61420174840808   -1.76183979877231   -2.20280462289575
C         6.90727381173058   -1.74010729903070   -0.18612832838239
H         7.85958065817261   -2.02721091075481    0.23989349456376
C         7.16738124518700   -2.99846967095095    2.61290839775974
C         6.69147332944632   -4.24430406608048    2.20946373672372
H         5.69977563058871   -4.30447299466736    1.77862143925966
C         7.46632267854323   -5.37685225604933    2.36294846395902
H         7.09075622714544   -6.33976040395437    2.04829390091720
C         8.72475653644190   -5.27499890002088    2.93641268427651
H         9.33043123872649   -6.15917764680691    3.06987876937019
C         9.20139060259022   -4.04081133106113    3.34494205926853
H        10.17909964722825   -3.96239618744550    3.79788670373324
C         8.42894315327175   -2.90249891742529    3.18661685140538
H         8.81233049166143   -1.94912789138061    3.51802153928844

