83
CSD_code = VIBDER | q = 0 | S = 0 | Stoichiometry = C42H32CuN5OP2 | MND = 4
Cu        5.16639814137132    4.48473798900198    6.97764272755599
P         4.53492439722250    2.59903362054113    7.94956454565010
P         5.32804537620635    6.16979558921396    8.64980060038519
O         5.42230444059265    3.89924533855380   10.12700268689466
C         3.51372868057923    2.80016802101183    9.43540884756094
C         2.19067570573390    2.42088465958218    9.59144295720589
H         1.69881050335491    1.85932807303212    8.81066177624382
C         1.50726990131011    2.77370196179287   10.74407747930735
H         0.47754705609136    2.47616097224272   10.86957878683803
C         2.13545497126763    3.51786735917319   11.72719772750490
H         1.59546391075426    3.80041780069922   12.61814212280981
C         3.45412761226630    3.92008353231951   11.58062769505291
H         3.93434049884137    4.52241385937491   12.33777806850905
C         4.13716496972241    3.56150637591923   10.43284868391990
C         3.47705451224531    1.56114348143665    6.89448373072805
C         2.86760466714269    2.17957873108939    5.80758316887354
H         3.06096838428740    3.22974694973472    5.62225684420958
C         2.03620125382525    1.45243242272436    4.97477248202759
H         1.56235073560165    1.93415314983587    4.13263642718687
C         1.81982006569240    0.10597100131169    5.21952870898558
H         1.17506895026736   -0.46474584984084    4.56738213846726
C         2.43412133566230   -0.51467316427077    6.29655349764579
H         2.26689712702652   -1.56609687429408    6.48114287424651
C         3.26232424391357    0.20777998303635    7.13573324133286
H         3.74490814007603   -0.27327970038620    7.97568042761803
C         5.81398081725325    1.41655646824936    8.47617521675080
C         6.86906607381129    1.23274863152531    7.58687284180716
H         6.86767124334640    1.78631324913911    6.65582756115292
C         7.89598776763302    0.36135904140433    7.89577867139429
H         8.71294563652229    0.21856199482996    7.20335116086624
C         7.87835089286299   -0.32521418945194    9.10005634012346
H         8.68175662998090   -1.00371558928497    9.34661176387299
C         6.83249898215531   -0.14049138072188    9.98940944360178
H         6.82125442332509   -0.67761798474834   10.92712540465814
C         5.79909114016511    0.72750990410588    9.68269138654374
H         4.98220497596257    0.86927708305467   10.37731259467585
C         6.17635219643278    6.12675152716732   10.26574384296466
C         6.89228952200169    7.12766163881984   10.90725365885074
H         6.97402601113160    8.10591284522924   10.45540333682344
C         7.48347608526531    6.86825543279191   12.13278235093139
H         8.03111567772144    7.65075946063676   12.63694183176673
C         7.37705581189508    5.61715918648556   12.71828393924380
H         7.84316538471265    5.42644319255732   13.67313758819299
C         6.67557849621930    4.60258454799289   12.08387165567066
H         6.59404901077461    3.61926940957352   12.52346606063237
C         6.08111521211135    4.86668712470550   10.86436194110963
C         3.61222790764982    6.40129504639188    9.23018839204206
C         2.58747480658258    5.83011212831114    8.48311400312904
H         2.82762183936452    5.30667256810414    7.56458480334452
C         1.27562496650312    5.93968249924662    8.90573977228747
H         0.48490223577899    5.49428859308953    8.32098425988015
C         0.98042286678278    6.61688936968766   10.07690788864576
H        -0.04311323707835    6.69728022924430   10.41232368765179
C         1.99726539733488    7.19808861819144   10.81736829589373
H         1.76578961703454    7.73539598500159   11.72590938607106
C         3.31068057120146    7.09382867097246   10.39885579067708
H         4.10311978278157    7.54849536795671   10.97819955388336
C         5.74962723470124    7.78672064277130    7.95589561732600
C         7.09679867444981    8.09177341327461    7.76367779359209
H         7.85571690464221    7.43722634178571    8.17661265252320
C         7.45775429103379    9.21028728899826    7.03856506853661
H         8.50337622105172    9.44379009998434    6.89572945061744
C         6.48083701152216   10.01385876964947    6.47226136596633
H         6.76466131615861   10.87435375973450    5.88535744986612
C         5.14194056845501    9.70197025221802    6.63989340307503
H         4.38170525561301   10.31236465012755    6.17680830303357
C         4.77308739134579    8.59170143150810    7.37610972513030
H         3.72868303239092    8.33290629461885    7.48535383636368
N         7.14106665673238    4.96975308548990    6.35971896291309
C         8.33459461398187    4.62742074579395    6.81873141042173
H         8.34353583025921    3.84979160767492    7.57286983259753
C         9.50337457249958    5.21984698740155    6.37825972130618
H        10.45614670478340    4.91255991565992    6.78059754788986
C         9.41999029397370    6.21531705555293    5.40875191828406
H        10.31571504941510    6.69503354872920    5.04124067119691
C         8.18060854982950    6.58224706547504    4.92938567311839
H         8.04768455453976    7.35214899770157    4.18693430480040
C         7.05122769511220    5.93579019931979    5.43564320322777
C         5.71979007438675    6.28572349783079    5.02562485404914
N         5.32707884034572    7.24111823617260    4.18368642821105
N         4.01386954107576    7.18344680223426    4.19128641440633
N         3.59534802669102    6.25158921208035    4.98438003556651
N         4.63575676862321    5.65360414487579    5.53116168411510

