67
CSD_code = VIBGIW | q = 0 | S = 0 | Stoichiometry = C28H37NZr | MND = 12
Zr        2.48226260001551   -2.36756238516593    4.08719730417492
N         4.36028160021399   -1.65252711023314    3.77119541056388
C         4.41825717982291   -0.64767787703516    3.00755390124638
C         5.75369364446181   -0.01412990229063    2.65874221489034
H         5.78424361724130    1.01850213533374    3.00229035910654
H         6.55063699852098   -0.57369763633714    3.14349010854836
H         5.91342453401427   -0.02715998292406    1.58167769899008
C         2.90375950809279   -4.81170271995478    3.73664521387437
C         1.50260711813790   -4.62617974135883    3.56308770556845
C         1.31258126199765   -3.80555584106379    2.41562241324390
C         2.59101329253087   -3.51122053369531    1.86112866862656
C         3.56935225973419   -4.13400298160232    2.67887791530763
C         1.78107903499213   -2.87929671289751    6.43857378834596
C         0.79760169638200   -1.98316032126791    5.92844816181950
C         1.42375870431550   -0.72856958460508    5.68887612039204
C         2.79438686674475   -0.84704928696847    6.04049135285340
C         3.01898311660403   -2.17534497339316    6.48867377691376
C         3.61019157655750   -5.74949100383121    4.68088200486530
H         4.19433109130201   -6.47410809308206    4.10900921308385
H         2.90310054829703   -6.31013823918479    5.28989062564930
H         4.30401382483110   -5.21740979386739    5.33822584545356
C         0.38995004326073   -5.41395530433107    4.20223972224530
H        -0.43381668894719   -4.77706288522594    4.52657745646963
H         0.74332686625737   -5.98985617484379    5.05402574495487
H        -0.01691484096109   -6.12081256451155    3.47370311124017
C        -0.02374254886150   -3.52861734298419    1.78105306724708
H        -0.37279821208656   -4.40991931388487    1.23534764767482
H         0.04083899668077   -2.70408386606996    1.07296578838122
H        -0.78083946817780   -3.28768166231677    2.53045027220156
C         2.86504354733772   -2.80250687502457    0.56308648278948
H         3.77403015384692   -2.20347517380633    0.63236171893600
H         2.04456364102281   -2.13916106537571    0.29219766417333
H         2.99766850452253   -3.52712382935078   -0.24449464689543
C         5.04559600535220   -4.22566769736912    2.40859103103160
H         5.29721084869883   -5.21533323087330    2.01720521718088
H         5.62162172588996   -4.06174707902710    3.32061161077451
H         5.35239890854922   -3.48353981713506    1.67496248867527
C         1.51424357116667   -4.16861221619676    7.17176671961420
H         1.53261054446757   -3.98039361445566    8.24934153476483
H         2.26459271277941   -4.92899135024086    6.96122608212060
H         0.53394921626555   -4.57261902253703    6.93087163828966
C        -0.69085846093818   -2.20468680613612    5.84212202260519
H        -0.96644160516832   -3.19596828811179    6.19708458907007
H        -1.06129341589351   -2.08623321441435    4.81857145488845
H        -1.21442390656544   -1.47733546843414    6.46588181913900
C         0.71334637142332    0.56208152821869    5.38371869253342
H         0.50004561589124    1.09680566960272    6.31357485720049
H        -0.23219814329156    0.38361791261675    4.87505811065025
H         1.32278309919772    1.21297560493276    4.75669588826773
C         3.78896307244037    0.27852595109284    6.08301699454503
H         3.58403076617645    1.00580362200187    5.29693642786561
H         4.80280400269579   -0.09635503793787    5.95024675499422
H         3.73505779953006    0.79616824147566    7.04462062606418
C         4.33527329190369   -2.69149858682140    7.01029461155541
H         5.09323228249398   -2.67841903554242    6.21871738918324
H         4.23489475271085   -3.70573386627121    7.39398102277373
H         4.69241214200600   -2.06051586889652    7.82653449088084
C         1.96569458051656   -0.69210752243277    2.76819514572168
C         3.18118393490503   -0.04137829584064    2.42125783716337
C         3.19350063652972    1.07459848952398    1.58694169061840
H         4.12134121738617    1.56707732708447    1.32999705279180
C         2.00752425490630    1.56787336322919    1.06887617679390
H         2.01829223845683    2.43332179561497    0.42021775934814
C         0.80900843839569    0.95240463523292    1.38495798192263
H        -0.11745734924113    1.33932942740791    0.98018882980032
C         0.79737191368205   -0.15534939452721    2.22453295836973
H        -0.16718113202036   -0.60575951168642    2.46190865986095

