68
CSD_code = VIBGEV | q = 0 | S = 0 | Stoichiometry = C27H36ClCuN2Se | MND = 2
Cu        3.67032270647091    3.71302177080805   13.84897828535545
Se        1.74910957791513    3.75339941191533   12.62792245037514
Cl        5.50860292830683    3.63687201954265   14.80391221396986
N        -0.86538761616355    3.67069652622058   13.68267612862529
N         0.61034906232233    3.80763942146370   15.27463691206387
C         0.46050133925501    3.74327863995425   13.93380290236692
C        -1.54852610645909    3.68849557371265   14.87016478432384
H        -2.61717091455233    3.64009768746226   14.90391061172109
C        -0.63132840825048    3.77318149060289   15.85933348508327
H        -0.74568419622392    3.81122736935761   16.92282199857701
C        -1.43993409801647    3.60508630704595   12.38325248317957
C        -1.59585219413215    2.35766056871184   11.77712804749633
C        -2.14648127218718    2.32263289980938   10.50301782338172
H        -2.27596936305043    1.37524182580615   10.00405072708691
C        -2.52058086169901    3.48706330089256    9.86107456267076
H        -2.93902944066912    3.44130024386734    8.86682922521197
C        -2.35659021288027    4.71088475941957   10.48110365161833
H        -2.64498391659321    5.61171284132306    9.96311250615018
C        -1.81641794334680    4.79478625210790   11.75695910339660
C        -1.17695264650039    1.08060824949952   12.46529229032197
H        -0.79023148205317    1.31710516708406   13.46202560131968
C        -2.37215216166163    0.14080359941703   12.64020072572901
H        -3.17063703866671    0.63401041203564   13.19138383497354
H        -2.06920700950504   -0.74643537089761   13.19133888491397
H        -2.76452931840192   -0.17379153085544   11.67710565144720
C        -0.05209547121675    0.40185904501085   11.68188326643519
H        -0.39214873497293    0.09782088400179   10.69579449556184
H         0.29532224530177   -0.47979654478653   12.21520849628299
H         0.78471563479468    1.08679063021967   11.56081097337707
C        -1.61618175041388    6.13635605041795   12.42133627723376
H        -1.31849866996501    5.98210725977751   13.46391513788519
C        -0.48823406763554    6.89495955766860   11.71819368074340
H         0.42645856367713    6.30508806120934   11.72942555041988
H        -0.30039385839514    7.84018614621544   12.22228407725301
H        -0.74926947499682    7.09887677512191   10.68318770400148
C        -2.90769324665675    6.95666090786423   12.43060049803735
H        -3.20316071500898    7.23715887329602   11.42367888763583
H        -2.76203535480910    7.86784668107036   13.00629000778699
H        -3.71902597417566    6.38908926653097   12.88207183585272
C         1.82110048443155    3.90312259928402   16.02164055936336
C         2.36014901977718    2.73738338563368   16.57622972129258
C         3.48230330711499    2.86398933394302   17.38184988359004
H         3.94181685682357    1.98330782981205   17.79990202395266
C         4.03753748941430    4.10358266012626   17.63377194277287
H         4.91724844613515    4.18002444416790   18.25281585991897
C         3.49448693667787    5.24112244074000   17.06980947284521
H         3.95758440539626    6.19742868264063   17.25265617796094
C         2.37982475733850    5.16552713102675   16.24617257957767
C         1.79514478069653    1.37618141096514   16.24427045869697
H         0.83024784652449    1.49585043705121   15.73771840328590
C         2.75019653732189    0.66789223925597   15.27975892213307
H         2.92040574693028    1.28667528301720   14.39564640016217
H         2.33642655863621   -0.28772790647989   14.96515493055177
H         3.71375183606809    0.49799568921600   15.75219815765529
C         1.55469527465201    0.53348334717200   17.49761360994160
H         2.49116460641330    0.28645082399454   17.98880810017211
H         1.05863642715330   -0.39638787573858   17.22813823853054
H         0.92451920275439    1.06901552039107   18.20523565619865
C         1.82573567863728    6.40817744262147   15.58986944899788
H         0.96950077816749    6.13774452352491   14.96121661480319
C         2.88765460181798    7.02867107029537   14.67949134156466
H         3.72246963421781    7.41266401223272   15.25860448066063
H         2.45991404430716    7.84313482335412   14.09918821982097
H         3.27531543060547    6.27358873645565   13.99184765576727
C         1.33885244374593    7.41185814292905   16.63677543257447
H         0.57032003956089    6.96720464215010   17.26672407757105
H         0.91969596567384    8.28758334303251   16.14629671380545
H         2.15830232422192    7.73497275725802   17.27277913595156

