55
CSD_code = VIBGES | q = 1 | S = 0 | Stoichiometry = C15H32CuN4O3(1+) | MND = 5
Cu        5.61586792639561    9.37712431756340    1.72137057167129
O         6.52582304806545   10.72250017358551   -0.59993773285232
O         5.83438312367252    8.32766821583836   -1.05063642594823
O         7.82688977347751    8.71046680722980    1.78229695851019
N         6.28204094487788   10.90254752417847    0.65260316035659
N         5.18580132502287   10.87136915826730    3.02725918232549
N         4.41781362090694    7.92509800627365    2.58184748083131
N         5.43533508296647    8.02453973245174    0.20347386595791
C         6.40905961513604   12.01298257849269    1.27831723939127
C         6.87836924906069   13.25576929682506    0.59657441078429
C         6.14007642580497   11.98884493493181    2.77246581842350
C         5.53435476656184   13.31518771545137    3.23734443838571
C         7.47075434462989   11.72415112657426    3.48551592696498
C         5.04233036003264   10.44106677027329    4.41912564044031
C         3.99644463283980    9.33054127351559    4.63422528184359
C         3.87903158244392    9.12529968175799    6.15198376605360
C         2.62231575095337    9.73815256050697    4.09441135263195
C         4.46347339446342    7.98239908271935    4.04495556276511
C         4.65578501804948    6.58367078002090    1.93901538764390
C         5.83253454207746    5.86376015148760    2.59794572527521
C         3.38065440999398    5.87085191858794    2.07341376396507
C         5.02632325730519    6.85492297896086    0.48933356259600
C         4.92109053648232    5.74767772791787   -0.49121223665131
H         6.12891900128757    9.32257498200002   -1.02240953994928
H         8.31886033953456    9.42079110473789    1.35401136739269
H         7.92824392099055    7.94148154309668    1.21078057896478
H         4.27548379013510   11.20143566979789    2.70770638228283
H         3.48128753393553    8.20591075559742    2.28785073073568
H         7.23281860418406   12.99492513908836   -0.39857079817896
H         6.06175113518222   13.96880190394521    0.49355491016338
H         7.68119498414131   13.73277714327201    1.15401574868357
H         6.23517288236214   14.12860282686207    3.08141370987547
H         5.30439579451546   13.28029642535921    4.29911731234672
H         4.62140201134382   13.53873845119138    2.68864150062121
H         7.78576371410387   10.69569336037515    3.32549506280768
H         7.39012119496457   11.91635331686053    4.55171428418331
H         8.23654015248585   12.38377673760049    3.08749994945849
H         4.75765593875652   11.29016128384593    5.05087211577395
H         6.00847517880655   10.07060533138163    4.76292480564832
H         4.82988771203993    8.81340830593188    6.57605881721057
H         3.13741967030759    8.36487260679099    6.37955957998897
H         3.57238505897869   10.04508235306637    6.64192433490260
H         2.62519667935972    9.93943432550817    3.02431432175025
H         2.27710062977255   10.63544558377645    4.60252159952757
H         1.89682350929302    8.95180604569945    4.28907175078582
H         3.83339802341662    7.20199622589221    4.48053295650772
H         5.49381561084949    7.80266962242682    4.35642852645516
H         6.68327766867173    6.53463753072571    2.68489775966632
H         5.55988877131972    5.49736649851116    3.58316095297702
H         6.11780240199847    5.00928297805997    1.99112625835404
H         2.55976978758849    6.11423714344831    1.42636782965683
H         3.18674008004761    5.25860178620114    2.93157720722412
H         4.37626479133517    6.09240171009899   -1.36979933004476
H         4.41459877262950    4.89408675432248   -0.04700750980535
H         5.91179192443648    5.45555204111803   -0.83964587733065

