58
CSD_code = VIBHUL | q = 1 | S = 0 | Stoichiometry = C24H27BrN2O3Rh(1+) | MND = 8
Rh        3.68341448283717    7.99960308182145    0.31173375157380
C         4.02707081009316   10.06714812283681   -0.35975268289790
C         3.22075258138556    9.38222144392356   -1.34131669172257
C         2.00772875132579    8.99315073777265   -0.70951792875954
C         2.05367217552382    9.42046726316985    0.66130558605083
C         3.22843213067986   10.21784293971043    0.83992994835572
O         3.61325055363169   10.93770224803921    1.85046196468048
C         2.88661491460648   10.88830853406348    3.08314367673347
C         0.86868942569821    8.38080824626613   -1.45547341187162
C         1.37574136088671    7.81741602436200   -2.78388340879423
C         2.16608417629114    8.88699357727464   -3.53577926280379
C         3.47101969993385    9.22463509890495   -2.80785490915929
C         5.23920744979854   10.88517314159283   -0.60684172911524
O         5.54657112259909   11.85339588363743    0.03051595728816
O         5.93287406296580   10.42598975662053   -1.66336045815906
N         2.94249012293382    6.17964038153312    0.74342142234344
C         3.74171658890502    5.13075215619721    0.45663253716509
C         4.96853224666436    5.48778466316096   -0.24764141972758
N         5.09711172002115    6.80712595519510   -0.50108066955296
C         6.19004539241351    7.25429421386434   -1.11622964392907
C         7.21170269288894    6.40963483359527   -1.51130367193619
C         7.09750626335592    5.04986597635224   -1.25712857082896
C         5.96112784329258    4.58480053385128   -0.62194863641982
C         3.39817621242617    3.83782998078029    0.84642301762137
C         2.22435942068321    3.62644815457671    1.54425113528653
C         1.41786596613823    4.71733687489343    1.83967831068553
C         1.81631778114643    5.97350878991405    1.42442910591149
Br        4.93490668745154    7.80956015471629    2.44536522638493
C         7.09568856838499   11.18388691053557   -2.03429055598814
C         3.66011926288657   11.70619960906673    4.09944855196384
C         7.54783025954811   10.73114272123533   -3.40885296581395
H         1.21328347016781    9.40427886618958    1.34059755729277
H         1.88129142302932   11.29823188551531    2.92710935111522
H         2.80766107506466    9.84329328468727    3.40848407380955
H         0.13124020602969    9.16683902761310   -1.64977355234959
H         0.37090819561738    7.60786339050482   -0.86489956455863
H         0.53113952240596    7.48416665735142   -3.38624355281551
H         2.01826827616655    6.95220861669222   -2.59211563747471
H         1.55313708217018    9.78605553590267   -3.62015689383034
H         2.39595248696728    8.54493971125351   -4.54450296691218
H         3.89935002220799   10.15020328614628   -3.19812384257492
H         4.21049459287033    8.43853764789663   -2.98805924933026
H         6.25208296319988    8.32083570851496   -1.29764932385317
H         8.08278300053102    6.81321185759702   -2.00080967064504
H         7.88160655058414    4.36726554609131   -1.54357258869467
H         5.84937192306033    3.53556088219612   -0.40678287578859
H         4.04937004612429    3.01155058406455    0.61641939358970
H         1.94689801956715    2.63390383211272    1.86122335659037
H         0.49901712322210    4.59981012274605    2.39017956221894
H         1.21644513663781    6.84386019706467    1.65755582080073
H         6.83592176645623   12.24672916935386   -2.02660718323605
H         3.13099611765663   11.70777883368183    5.04735336579217
H         3.77273000894931   12.72775116322321    3.74882536997616
H         4.64692728679284   11.27608502412754    4.24267698785221
H         8.42293700078291   11.30207788686867   -3.70267060635044
H         6.76168719059893   10.89471367237133   -4.14119392142982
H         7.80416746646403    9.67479704113906   -3.40139526617089
H         7.87251131928093   11.01768255963123   -1.28055171758510

