77
CSD_code = VIBJUL | q = 0 | S = 0 | Stoichiometry = C38H34P2PdS2 | MND = 4
Pd       14.53250242016082    4.40733372765004   -3.56784787902005
S        13.88355189933063    5.92386883946197   -5.20400117253036
P        14.61038775841584    2.73073125255633   -2.03974931502493
C        14.91755725594974    1.11633264942996   -2.90920874178795
C        15.12799446471561    7.14039885541392   -5.04049903676712
C        16.44480882056063    6.75967281335808   -4.79103238718123
C        17.42529841856121    7.72049409858444   -4.64826119516791
C        17.10799629997648    9.06457944838928   -4.76974758849023
C        15.80224747224403    9.44184278595728   -5.03777256281189
C        14.81165569381752    8.48830348209721   -5.17220595966199
C        12.85629714810770    2.50853870179280   -1.59557132558224
C        11.88706250416604    3.04358513078105   -2.44440664258085
C        10.54401642383747    2.86527091157134   -2.16284436801273
C        10.16065648250359    2.15398290315879   -1.03722840358515
C        11.12067304606014    1.61645412200346   -0.19449607565206
C        12.46495175855998    1.78879110177217   -0.47074181760121
C        15.47568167913754    2.61020724511403   -0.45796681230521
C        15.09582003542743    3.52201199089848    0.52694398483006
C        15.75110830813036    3.54144778737983    1.74205410422581
C        16.79489927605061    2.66051170025923    1.98013254947217
C        17.18637676519935    1.76625021602053    0.99763155705083
C        16.53681369341994    1.74247363846458   -0.22403700757175
H        15.99154407079134    1.03746238043796   -3.10938741724494
H        14.61302263374030    0.28449623788812   -2.26559808934155
H        16.68395589566650    5.69802865108781   -4.70112096559389
H        18.44240484761848    7.42020728967604   -4.43769978952650
H        17.87658868777781    9.81494274647681   -4.65220000927996
H        15.54885590521153   10.48852922440976   -5.13027039125960
H        13.78746200824544    8.77362508252967   -5.36298601099225
H        12.18626831120444    3.60731320545035   -3.33904443818239
H         9.79686192308519    3.28501017539108   -2.82030221621570
H         9.11249130585971    2.02013285601649   -0.81466513432119
H        10.82046510987918    1.06186444013872    0.68250033464764
H        13.21538509109696    1.37501962504718    0.18911802287313
H        14.29092631332258    4.21536769213014    0.32104636393094
H        15.45367790981753    4.24763622688000    2.50268489909666
H        17.30955146680125    2.67641981710355    2.92941227036348
H        18.00574208221664    1.08630306773837    1.18105908565368
H        16.85603290239815    1.04786029373697   -0.98772270048706
S        15.18173460696937    5.92390013433109   -1.93040596850124
P        14.45460710255255    2.73078994378596   -5.09494991549243
C        14.14746147606213    1.11624893732196   -4.22575500859615
C        13.93734151206266    7.14036680399282   -2.09471246362048
C        16.20870234032197    2.50850104926808   -5.53915364094741
C        13.58950459190667    2.61012983810230   -6.67685240603813
H        13.07349624367292    1.03739404068378   -4.02549585021609
H        14.45200822613736    0.28445061309001   -4.86939438868441
C        12.62046700310485    6.75955327462975   -2.34377665284458
C        14.25352405856893    8.48826434209569   -1.96257648166547
C        17.17795223623027    3.04347155986218   -4.69027614026716
C        16.60010259340076    1.78872602748061   -6.66397461256001
C        13.96949149235148    3.52182002800721   -7.66185785576885
C        12.52842654747476    1.74232853270095   -6.91087121955904
C        11.63991833385310    7.72033054577960   -2.48647848513541
H        12.38135607988897    5.69789287115290   -2.43366917567833
C        13.26287790996332    9.44174773710729   -2.09693245951320
H        15.27771841921150    8.77363924834789   -1.77188548015524
C        18.52101139892318    2.86529015040816   -4.97190352355953
H        16.87876031953748    3.60749444023415   -3.79581956031223
C        17.94440414457973    1.61653994278327   -6.94029576475219
H        15.84971113409651    1.37505362182570   -7.32392879211043
C        13.31405163383951    3.54142450983971   -8.87691144505142
H        14.77414968740812    4.21540971371699   -7.45585241900082
C        11.87873208698463    1.76626108890172   -8.13248834055122
H        12.20896393041575    1.04795356386449   -6.14709048526406
C        11.95719868419506    9.06443488580125   -2.36518576746247
H        10.62286145106907    7.42001077101119   -2.69720132755580
H        13.51626723444231   10.48845715054761   -2.00469474960229
C        18.90440629792657    2.15431331987946   -6.09770111580437
H        19.26816542072299    3.28510238223071   -4.31447420698835
H        18.24465559794634    1.06181926807581   -7.81720238535127
C        12.26998382716072    2.66077486991500   -9.11486294941535
H        13.61154794073023    4.24755330187219   -9.63758870644343
H        11.05939944912767    1.08627828647240   -8.31596859572801
H        11.18856631609030    9.81476387322922   -2.48268117070079
H        19.95259367320012    2.02007852658419   -6.31999293193586
H        11.75578490880515    2.67622839081613  -10.06440527552062

