70
CSD_code = VIBPOM | q = 1 | S = 0 | Stoichiometry = C28H31BrN4NiO4P(1+) | MND = 4
Br        7.83842756445704   18.74223867591868    3.18120589623759
Ni        7.98984278317300   16.47206744832496    3.21152866002845
P         8.63317998327781   14.39291531354424    3.26294613642805
N         8.48623359110373   16.07860541579124    0.34915098787566
N         8.83747984841342   16.68348255053245    6.19289647598795
N         6.87204435123101   16.24515639895458    5.54254365569243
N         6.46185751105334   16.52515891982588    0.77965364840031
O         5.31679242725565   16.78905604897418    1.48148925986007
O        10.18466404182160   16.91497894204500    6.21351234487756
O         9.81639922740845   15.81006723544984    0.51492457568835
C         7.65910300960525   16.37345415109632    1.36494725348113
C         8.10572131262408   16.49513246180588    5.08590926819878
C        11.07049869154467   15.66246003350727    3.34311867366359
H        10.46532527414526   16.56452598929370    3.24113191610275
C         8.15877369884974   13.37464690559077    4.69446417310726
O         5.88422721532268   15.94705546959509    4.63347067442401
C         8.89446863407160   13.50902182271490    5.87172175934827
H         9.76976598587052   14.14484180301855    5.89250428376920
C         6.81665422840007   13.39726235321893    1.46884391738988
H         6.10948596908788   13.95729905140006    2.07105712241548
C        10.43976048374090   14.42408398496707    3.37439864197797
C         6.38655057830719   12.70415482578257    0.35378183695810
H         5.33873675944913   12.69750929205902    0.09319145031392
C         7.04651046780446   12.54058342364464    4.67276499570909
H         6.47440212994385   12.41913340738067    3.76527443996405
C        12.56678650997338   13.35158547264402    3.63844536488544
H        13.15342983700383   12.45378447139672    3.76104384238622
C         7.82513249967955   16.04104170530059   -0.84569743807653
H         8.31909676916624   15.81698927350456   -1.76774912239280
C         8.16804798725843   13.39920282418432    1.81505780162106
C        12.44600295200636   15.74593891963235    3.45025789628981
H        12.93494551454660   16.70830971539156    3.42789458226260
C         9.08797382401116   12.73546628842628    1.01454980642769
H        10.14011710334637   12.76730538534730    1.25382851440427
C        10.63509760802149   16.95842106583662    0.29451321173656
H        10.58781522957796   17.27955656335648   -0.74872731841478
H        11.64287708517957   16.63333444527308    0.53761508781277
H        10.33822664917223   17.78240346000632    0.94909866020237
C        11.19076669405286   13.26322150763530    3.53588867341664
H        10.69678511529806   12.30284969016719    3.59594752453438
C         8.52146684208298   12.81414717406941    7.00637539596059
H         9.10140682671759   12.91670964064067    7.91109206431966
C         4.78807188988720   18.09010084185687    1.21984976437952
H         5.48703735796550   18.86997052863651    1.53002367286167
H         3.88173388538551   18.14821535889915    1.81630532862392
H         4.53713973307194   18.20832671410700    0.16392953607908
C        10.51853309680607   18.29479648124340    6.06319753339387
H        10.11441636702794   18.70016775768984    5.13307591309893
H        11.60431623729898   18.31178713468774    6.03831116185974
H        10.15562172512636   18.88160386330946    6.91002733054876
C         6.52976791954334   16.31987477524629   -0.57006345676401
H         5.67494737579926   16.38489753449344   -1.21013866224717
C         8.64998951630729   12.04705588172628   -0.10430958232121
H         9.36534403436951   11.52885188250576   -0.72460141875274
C         7.41032348750836   11.98589397685118    6.98103547082026
H         7.11941673838155   11.44521221337149    7.86831529102299
C         6.67943231678622   11.84739327782916    5.81292922398725
H         5.81937067665585   11.19565618899529    5.78697009398548
C         8.06916873214995   16.54930486546620    7.31823478818878
H         8.47819664334386   16.66410708964297    8.30019896383571
C         6.81194112933117   16.25846935135134    6.90405898464571
H         5.91697048601341   16.07510008534744    7.46000701791785
C         4.76227931677782   16.82290384074145    4.70614418425584
H         4.22796058890816   16.69893109627549    5.65034819131237
H         4.12711400522723   16.51720522865738    3.87884519999143
H         5.06601141298379   17.86490713354780    4.57607010506147
C         7.30467408529207   12.02445983550785   -0.43210543209685
H         6.97070530858593   11.48546612351683   -1.30520846401915
C        13.19357726356474   14.58804923363481    3.59193212016841
H        14.26785785484210   14.64773217760864    3.67565054487745

