48
CSD_code = VIBQIG | q = 0 | S = 0 | Stoichiometry = C20H23AgBrN3 | MND = 2
Ag       -0.15215810920100    3.53175001311765    3.46180060896873
Br        1.74714231777033    3.83865631358314    4.86082299612863
C        -3.29675351037206    3.85408524841817    5.16432603121329
C        -0.16263682759669    1.88577935962415    0.29766854862133
C         0.52156473059412    1.15516628238938   -0.65616134450850
C        -1.54130168318152    2.02080134224909    0.15154472814014
C        -2.74177685937072    6.58817045036283    5.21881143428062
C        -0.17985812741346    0.59257526141299   -1.71340476178509
H         0.32234921732621    0.01698533854869   -2.47385119720642
C        -3.67231365925818    2.95455449609383    0.87679461247201
C        -4.10356483954038    3.66439343535395    1.94089606687027
N        -2.32478597495057    2.73655811205760    1.06402640229446
C        -3.00321093231838    5.90641000465210    6.39136378533804
N        -2.21378973299134    1.48736262558691   -0.86046291759850
N        -3.01296097402141    3.85955809000368    2.75069562732106
C        -3.27912359631686    4.55320478205732    6.36387428035639
C        -3.02059918453372    4.55934958971230    3.98913810934358
C        -2.74824272675385    5.93067652322641    3.99577574422393
C        -1.54948747691665    0.79355820494978   -1.76570261203009
C        -2.43560261621260    6.68222061436425    2.72317477816319
C        -3.56995522382013    2.36840044074084    5.14972706817630
C        -1.90926271945028    3.29644669607280    2.23133151125495
C        -2.40223410029395    1.62548186998326    5.80275554802074
H        -2.55774230868586    0.55069457754800    5.74670005729264
H        -2.29707226492469    1.90918938261526    6.84639238729771
H        -1.46509431448433    1.86646761493419    5.28980051689067
C        -4.89003162281272    2.03534916023202    5.84768107704825
C        -3.35758878534835    7.89056249957931    2.54794390538140
H        -4.40111664352995    7.58427847219675    2.58727206431758
H        -3.17202513756136    8.36018526813323    1.58466781335637
H        -3.18745113367252    8.63099247271169    3.32449023914308
C        -0.96650391833821    7.11055226359433    2.72569336048224
H        -0.31686390808162    6.23633528616311    2.84297490708745
H        -0.76274200040153    7.79331356139331    3.54602583695344
H        -0.71362985582475    7.60340591703798    1.78995850739921
H        -2.98406231865729    6.43181932570521    7.33403147552011
H        -5.07332293154598    4.04234384693829    2.19112063755899
H        -3.47253048762061    4.03179262558458    7.28790365600985
H        -4.17821037344499    2.58388082792063    0.01130259085491
H        -2.51956429326815    7.64284747491094    5.25608505467203
H        -3.64886441310411    2.02535747455972    4.11280749825997
H         0.35616077777711    2.34122642356963    1.13314524216512
H        -2.15239963950842    0.38375854187801   -2.56486068188945
H         1.59050313114580    1.02931794472221   -0.57420796682339
H        -2.59152986444959    6.02008853908997    1.86500182328850
H        -4.84515119749215    2.27011478311560    6.90743912492368
H        -5.70936487526449    2.59839774604222    5.40494294370244
H        -5.10513901206216    0.97428287525120    5.74404288105844

