63
CSD_code = VIBQUT | q = 1 | S = 0 | Stoichiometry = C27H29BrN5Pd(1+) | MND = 4
Pd        9.36528573136740    1.82856840050301   18.06419586234167
Br        9.33279337875017    3.16379824351518   16.11664196944163
C        11.20973007920681    1.03629460676368   17.73127877674879
C        12.66561045233635   -0.65825093619543   17.93574521524040
C        13.36193656280229    0.49556352229261   17.53716297288974
C        14.73536804780477    0.47235473772124   17.33944488100175
H        15.27807284451843    1.35280074339207   17.03691193044613
C        15.38011302443582   -0.73113092805305   17.54373030841884
H        16.44670254329665   -0.79004232256579   17.39680718362525
C        14.68653855026026   -1.87691485196933   17.93403701037458
H        15.23169427436302   -2.79584763989440   18.07966292520642
C        13.32088566910687   -1.86346370485256   18.13873875034029
H        12.79618659446132   -2.75640103801995   18.43998563724658
C        10.24505621971757   -1.06883130754633   18.54570382931460
H        10.56260554762545   -2.10638230654643   18.64897312129671
H         9.40170521179759   -1.02040229029777   17.83416973167571
C         9.80498112617370   -0.50297618524288   19.87925211510466
C         9.85991664330552   -1.22721992249089   21.06037631952563
H        10.20021991613907   -2.24997568560559   21.05547911483228
C         9.46753754672608   -0.61384730445274   22.24051365631352
H         9.49729027642216   -1.15431800209188   23.17308015763222
C         9.03732756021043    0.70419526878992   22.20638274294292
H         8.72753376501596    1.20774936649860   23.10769541044165
C         9.01626196484542    1.37106707252229   20.99109505322883
C         8.53920704073243    2.80224409817948   20.84778573911188
H         8.24481327711726    3.21479481891989   21.81267375231973
H         9.35826744296917    3.41513994768393   20.42708761052092
C         7.54377095328747    2.46805132019142   18.64619711195717
C         6.08668912820226    3.06298571276496   20.23597365585733
C         5.38310882601018    2.82252853726750   19.04121672299595
C         4.00519340715930    2.97732737992471   18.98296147582940
H         3.45207911662274    2.80651947211752   18.07379292952680
C         3.36375597823210    3.37059013987554   20.14063471121417
H         2.29376699102768    3.50328156092175   20.13086951173302
C         4.06394292124702    3.60593077204920   21.32370602972136
H         3.52100274652085    3.91410342564563   22.20286759598973
C         5.43512808066349    3.45804436980248   21.39417328125106
H         5.96851640980503    3.64906616261920   22.31189926500360
C        12.73642770135021    2.86708601763800   17.05346939547081
H        13.63758273635478    3.18142771979416   17.58769091338961
H        11.90231095910698    3.50679771509546   17.36689403530383
C        12.94406160533639    2.99197909603548   15.54260598296068
H        13.78838450009399    2.37143071102254   15.23625016978091
H        12.05089010826818    2.63017849591648   15.03122325718855
C        13.19067632053741    4.44250649924103   15.15391461959768
H        12.32261599153573    5.04887340157360   15.39820647311907
H        13.36652797593660    4.51632191429155   14.08520999680247
H        14.05760375253484    4.84339632147900   15.67435857048928
C         6.05428329274793    2.03470828194356   16.73692213883694
H         6.52172519661939    2.74430053369581   16.04672432861291
H         4.97565428029402    2.05092639411410   16.57862492309684
C         6.60086859100463    0.62803839970813   16.46660523743766
H         6.10726446995027   -0.08779712279032   17.13055786317093
H         7.69240966179983    0.61373180673779   16.68022038115346
C         6.38015603002546    0.23569780569622   15.01231954476492
H         5.32125111180297    0.25560034214470   14.76713134048560
H         6.75426888191072   -0.76735883538412   14.82690288384831
H         6.90203914170690    0.92562679784617   14.35437720157693
N        11.34283759420610   -0.27811599689896   18.03533696429351
N        12.42787229452938    1.50844674941165   17.44004784643002
N         9.39202093405827    0.76475366864921   19.86341131230346
N         7.41513494922360    2.83552219342249   19.93907524919879
N         6.32193606876238    2.44832583547981   18.09861530202348

