53
CSD_code = VIBSUV | q = 0 | S = 0 | Stoichiometry = C21H26Cl2FeN2O | MND = 5
Fe        2.56811201249755    7.53212393750231    6.32649871634227
Cl        2.63937646342044    6.25366746824278    7.96470840856417
Cl        0.74512977613172    8.24597710683628    5.77331441858861
O         3.04764680049503    9.14950536729579    7.45174295221049
N         4.31543925504607    7.54330257307359    6.08337591317308
N         2.67190350934194    6.16715331411853    4.92043238639729
C         4.86577704191687   10.35899589582549    8.45383188196841
C         4.28927229455420    9.30670069302711    7.55653672044054
C         5.10720871304011    8.42644371194958    6.77236922583916
C         6.49535437913661    8.37844877696345    6.66024456014348
C         7.07914646846385    7.41872912165499    5.85138388668304
C         6.27589248894796    6.51338216702117    5.16539376674547
C         4.89605205350925    6.59270419045144    5.28974544113553
C         3.89482548163761    5.80428803218362    4.63467962358305
C         4.25264989803977    4.69960071144359    3.69238025328190
C         1.57879413880564    5.63279053368291    4.20258769684457
C         0.90411467450572    4.49636866023181    4.66025024084983
C        -0.18074542102856    4.03011580302390    3.93079993536472
C        -0.58353337996851    4.66180788721927    2.77119686062913
C         0.09247880771136    5.78278731846369    2.32861775223499
C         1.17239805355888    6.29310679067516    3.03258871517106
C         1.89636534797089    7.51864817511639    2.52249311047186
C         0.92819303586795    8.67955961075166    2.29083200387418
C         2.65942635982806    7.18887880168975    1.23614463853998
C         1.32344438365339    3.79579863813848    5.92907761152254
C         1.64336118338764    2.32113323754157    5.67573974392278
C         0.22644745813180    3.94549412256866    6.98474465861928
H         7.09833808156027    9.08245126914269    7.21044065196150
H         8.15220093007634    7.36580220467295    5.75812037053465
H         6.71623869776483    5.75037929604997    4.54427118862322
H         3.36397228565685    4.32360916347589    3.19192300465125
H         4.71383985399055    3.88522217848716    4.25087868387686
H         4.96750459388683    5.04726155187454    2.94868962451053
H         4.05701143001967   10.92441698445256    8.90787038246962
H         5.50803057734695   11.03075399138820    7.88758149521704
H         5.46085708871740    9.89176660882463    9.23655437789891
H        -0.71538629254580    3.15841982693776    4.27488313902231
H        -1.42636928462955    4.28308672750494    2.21229721756845
H        -0.22758880032525    6.26970158361888    1.42069109675218
H         2.61827479447512    7.84234277486512    3.28332286039471
H         0.37367273202475    8.88243732918633    3.20274323836060
H         0.22411727017518    8.45491422863803    1.49429032495923
H         1.48305760137818    9.57326982553229    2.01286156898540
H         3.36919432899253    6.38150492379562    1.40121529881792
H         3.20568835732671    8.06343521624841    0.88928941063033
H         1.97024028549999    6.88185892876575    0.45302556825964
H         2.22304941246410    4.27764398658048    6.32010921680016
H         2.02398915636604    1.86651006830662    6.58720339439204
H         2.39742059688638    2.21824783442388    4.89755520931580
H         0.75664833285571    1.77314269817903    5.36675468607224
H         0.55943142735255    3.51999983208727    7.92780994730075
H        -0.68780830111914    3.44459492150995    6.67458970715032
H         0.00914356518667    4.99911339876306    7.14451721233581

