67
CSD_code = VIBWUZ | q = 0 | S = 0 | Stoichiometry = C33H29BrNNiPS | MND = 4
Br        6.69426677504689    7.01503704763453    0.60766832483857
Ni        6.85629941657387    4.80867033028315    0.03035157625961
S         7.82317838051235    3.09101404589358   -1.00413153224152
P         8.04634574342705    4.50006481097465    1.76218622564252
N         5.75843957805375    4.96170161112969   -1.49354875387769
C         8.30607972850524    4.00046588454057   -2.40705233038673
C         9.60071987357535    3.78263618712639   -2.88349857283476
C        10.06617676224890    4.43032220351005   -4.00560188358906
C         9.23857318852834    5.30483999643440   -4.69851381003877
C         7.94145022865462    5.49658157810704   -4.27306404019550
C         7.44895516773476    4.85764305346439   -3.13492351880652
C         6.05640798971617    5.01986630077057   -2.73807216760946
C         5.02429701878933    5.14362829327476   -3.81745628689410
C         4.47459694569531    5.02832910162982   -0.93681926179951
C         4.11776174038020    4.03477945950874   -0.01919398504012
C         2.90407028595865    4.10045172338690    0.63767931235609
C         2.02696100294490    5.15293348499352    0.40849261826285
C         2.39573280085215    6.14139237688486   -0.49893331252594
C         3.60076987134859    6.08970651362049   -1.16890137927219
C         0.71419954637973    5.23960465520769    1.12331813702360
C         7.35834247459463    5.02690624682861    3.36502900410754
C         5.98368067546912    5.19774777409215    3.47113817388714
C         5.41729325230812    5.52019852358056    4.69037601512876
C         6.22274435509671    5.66610664821834    5.80731143777629
C         7.59296211778881    5.48227927987433    5.70671134856927
C         8.16342785516003    5.15562408399965    4.49083128800629
C         9.63329490231442    5.35435469839792    1.56832274818915
C         9.85766023446127    6.61749978398401    2.10509812096636
C        11.05205628920446    7.26669857187057    1.84869555537432
C        12.01303300135173    6.67230313578837    1.04720898189959
C        11.77980988165152    5.42475179407485    0.48990762572617
C        10.59189110183243    4.76714964009361    0.74494070288981
C         8.51484076677990    2.80145282561585    2.24427532911882
C         7.54790076851144    1.81458068018204    2.09123287512818
C         7.79940961620113    0.51795719955828    2.49540978347280
C         9.02303734420535    0.20014326160157    3.06195567065213
C         9.98720984614607    1.18111527181553    3.22383986804366
C         9.73726285674594    2.48075922612751    2.82045184071682
H        10.23839576383455    3.09949894626870   -2.34161779955430
H        11.07941326450424    4.26256527117057   -4.33972799955762
H         9.60560532946656    5.82877628686097   -5.56778442433240
H         7.29956979673139    6.17986260787804   -4.80894619008061
H         4.79036429695145    3.19460667067117    0.14539705670210
H         2.64034110512981    3.32556091413499    1.34356078378823
H         1.72976599914142    6.97324755271135   -0.67471435044570
H         3.89589743567952    6.89268972589954   -1.82604343183769
H         5.36335422517714    5.09509847035665    2.58646974376890
H         4.34971453278361    5.66237082153746    4.76782496443606
H         5.78352135456689    5.92398746603057    6.75969458237738
H         8.21881504437639    5.59411482874320    6.58015550947064
H         9.23133824188427    5.00780745511668    4.41061122699434
H         9.09287438528610    7.09434374169030    2.70148518675437
H        11.22700454389562    8.24662533677835    2.26713353933679
H        12.94127505909020    7.18660762300066    0.84551923436195
H        12.52185902818180    4.96849126882493   -0.14934877758390
H        10.39342416910510    3.79739120124515    0.30720207973110
H         6.59879343091492    2.07525819498493    1.63835913545954
H         7.04644621665809   -0.24573305502400    2.36661717168132
H         9.22657365890375   -0.81326799544894    3.37525655865042
H        10.94144667451317    0.93285070977848    3.66580866040080
H        10.49717798428403    3.23965608913418    2.94416485096451
H         4.94754921673850    6.18360073907491   -4.13462573035571
H         5.30906928198169    4.54427784495546   -4.67941741267128
H         4.04916538210935    4.82342983530213   -3.45448013898107
H         0.64007685566595    6.18268802587646    1.66264171660773
H        -0.10863551815633    5.19971803588675    0.41010051624970
H         0.59946385595261    4.42257808246040    1.83098200875366

