65
CSD_code = VIBWOU | q = 0 | S = 0 | Stoichiometry = C32H25IrN4O2S | MND = 6
C         8.70643101501729    3.34865255161667    3.14978109939455
C         9.86076350422246    4.10131327004849    3.35260318565363
H         9.98226401834634    5.05107774339919    2.85042002781537
C        10.87323231725939    3.65758683444659    4.18579874387598
H        11.76024441425173    4.25984249724129    4.32074020497805
C        10.75613239754071    2.44690223007673    4.85374764269540
H        11.54646717097618    2.11042699320082    5.50817348674221
C         9.62835662497381    1.67388083133234    4.67616428725527
H         9.54537485241078    0.73101096020933    5.19595516800799
C         8.60887439039242    2.11238910767174    3.83012046589427
C         7.40613413704050    1.35294285984191    3.53740826143373
C         7.11665166506456    0.08703834122702    4.04811885167756
H         7.80335040976729   -0.38001680323553    4.73462390391852
C         5.96060309173542   -0.56548655150307    3.67240689066110
H         5.72751166398770   -1.54493875134221    4.06084410665836
C         5.10635157257684    0.06581003853126    2.77697094726318
H         4.19542653688444   -0.40607934795657    2.44562835202296
C         5.44439667675759    1.32049104740435    2.31163723080031
H         4.79053770748353    1.82499357611257    1.61437231393231
C         6.45507059061685    4.79058292375081    3.67367925041695
C         5.83422570123585    4.29677910083407    4.81622293067066
H         5.74093860293884    3.22890958381697    4.96337509174988
C         5.33112728502712    5.14537282392160    5.78919080322692
H         4.85535537120336    4.73421049551470    6.66831270751356
C         5.43430794443690    6.51935033179995    5.63975544545537
H         5.03743867477614    7.17917939019440    6.39715223700985
C         6.05214608455281    7.04218835194415    4.52163176322333
H         6.13101796758867    8.11392198704993    4.41514174360237
C         6.56474613693941    6.19130252132276    3.54325292775429
C         7.26321441542553    6.65301538462600    2.34896117365538
C         7.53198808276948    7.98698858480905    2.04931133272034
H         7.18562332355382    8.76553769935144    2.70953829038854
C         8.24320954043330    8.31013248234344    0.90847447098131
H         8.44909069326991    9.34169837257120    0.66518729626890
C         8.69434011825116    7.28167938817354    0.09615260328864
H         9.26265825144258    7.45560605034422   -0.80208821850920
C         8.39401262195900    5.97858387549258    0.44812861301455
H         8.75088233415676    5.17960795189868   -0.18587704166942
C         8.64516673127689    2.37157803724725   -0.41498453311621
C         9.21865102318122    2.52767778636830   -1.62432265958800
H        10.05008193184627    1.94091370890469   -1.96307270316639
C         6.98222546190683    3.89397575686465   -2.17532881822320
H         6.27779005017160    4.29363791094237   -2.87761536802399
C         6.69002847814727    3.58760716990461   -0.88738338651978
C         5.34191080310311    3.90648498228362   -0.37511292125853
C         4.21294542364612    3.92414787189429   -1.19699508094789
H         4.30229930369164    3.65082059098181   -2.23531828712490
C         2.98896013216417    4.27117095109869   -0.66174527357479
H         2.10396287913053    4.28353282793988   -1.28031646749441
C         2.91568770571935    4.60120601001882    0.68605386033444
H         1.98288240785823    4.89020595710103    1.14281346653681
C         4.07182904400914    4.53645757122267    1.43848191069247
H         4.06486948424290    4.76759004918483    2.49518584273346
C         9.23865734778684    1.37871513321631    0.55031289535849
H         9.95070552420550    0.73813550882989    0.03825954673075
H         8.45763593129866    0.76408538767770    0.99218729388332
H         9.75417556712456    1.90389369526406    1.35143319433858
N         6.55362248484234    1.96569054659634    2.67358853510834
N         7.68169346444077    5.66240945933202    1.52593093552904
N         5.24754954509550    4.18710496589117    0.92747949967138
N         7.51634738344023    2.99860408017981    0.01866559423187
O         9.30854191809348    5.03991952409493   -2.36316106817350
O         8.72713964217346    3.38143847136279   -4.07775741542466
S         8.65076206468492    3.78484232387710   -2.69442718007666
Ir        7.08818035944976    3.79356899363682    2.03352999612048

