52
CSD_code = VIBWIN | q = 0 | S = 0 | Stoichiometry = C23H26NRhS | MND = 6
Rh        8.61307942630346    3.60920740466270    0.05865894488956
S        10.79866110052645    2.77487177667012   -0.13834729043560
N         9.53860188395843    5.18223286321684    0.93594108200717
C        10.92429129354144    2.68583926783590    1.59446012601168
C        10.71192707454854    3.78982265839307    2.45640115072675
C        10.91674362948754    3.63402030799615    3.82664674278262
C        11.30560992341665    2.42375166979952    4.36177603103478
C        11.54384234829599    1.34770143895150    3.51499066490089
C        11.37013078391422    1.48475411218983    2.15669572098325
C        10.37993932468619    5.09954914405548    1.90398750751804
C        11.14161770334649    6.27615191675717    2.44158814319625
C         9.23295504289140    6.37269052242018    0.26320268714061
C         8.72810705312642    7.49724133293519    0.91239452612934
C         8.37281691934854    8.61506628594209    0.18100568475850
C         8.52084937337033    8.64898159305940   -1.20017517227171
C         9.02290643294558    7.52088036216325   -1.84118674288207
C         9.36699424938914    6.39179765141180   -1.12699570289902
C         8.11929359086350    9.86678998286475   -1.97503776281289
C         6.62101319844819    4.50134402532862   -0.00312609333473
C         6.81953088749815    3.84353901849180    1.20149166604730
C         6.29075730159579    2.46980703860567    1.54696308017449
C         6.49791530294322    1.43051809125459    0.42856568262235
C         7.76766427731370    1.68843924376059   -0.35225226712034
C         7.82297383377503    2.44286781117514   -1.51519397973481
C         6.64815054796909    3.15180872558158   -2.15000085819347
C         5.79517012060603    3.94838362561119   -1.14305447783756
H        10.73734361888311    4.47456642690509    4.48216863983035
H        11.43306672783623    2.31822403230714    5.42867019070738
H        11.86644528634990    0.40061487590519    3.92267971773501
H        11.56385087649721    0.65607458152144    1.49191205713032
H        12.15059741774546    5.97140521260121    2.70994779980238
H        10.65594776910790    6.65972786583805    3.33904333323213
H        11.18667144066229    7.07734459801133    1.70641973161383
H         8.58220063483037    7.48049001372930    1.98261398094449
H         7.97308992499903    9.47833696533377    0.69386734216657
H         9.14002234501213    7.52643176961384   -2.91519923016757
H         9.75511402372679    5.50799945707767   -1.62653159708534
H         8.48399600499694   10.76981052828669   -1.48889545498560
H         7.03238402025431    9.93483723915945   -2.03077860525893
H         8.51119014238905    9.83001446140144   -2.98825532148817
H         6.71542675402341    5.58547478740150   -0.00474364585501
H         7.03962311593490    4.45381559876637    2.08019272962002
H         5.22662052018692    2.54387171471696    1.79857421039559
H         6.81317091314287    2.12805057920804    2.44488994653932
H         5.64814915434793    1.42662525384272   -0.25460850478261
H         6.55240311829484    0.43862289711447    0.88151313334106
H         8.55596349715668    0.95290572679744   -0.19386767717890
H         8.64181170452145    2.23692354252111   -2.20878862808140
H         6.02339437085557    2.42108860058485   -2.67524672724155
H         7.03937603469992    3.84254409047721   -2.90135095068549
H         4.99671429999040    3.32444986873894   -0.73998306597582
H         5.32028365946420    4.77859144111024   -1.67014249788294

