117
CSD_code = VIBXOU | q = 0 | S = 0 | Stoichiometry = C59H46ClF6NP2PtS | MND = 4
Pt        0.33533504356897   10.42698743867324    0.66681959994482
Cl        2.42435549021722    9.93246112192020   -0.19727265547277
S        -0.39439708800169   11.07784841875421   -1.50596583251899
P        -1.66904563573070   11.31328598132103    1.34315036241225
P         1.14694989355940    9.65568279666935    2.68065903488397
F        -3.21054701706566   16.13216317212369   -3.50889458052864
F        -2.35655059586068   15.75419735130603   -5.44211521117600
F        -1.08699753621180   15.88841742145970   -3.71567947528798
F        -5.17773574719574   11.75843008258870   -1.45416926048079
F        -5.09410340169489   10.15088525384487   -2.87841122568176
F        -6.06502500788551   11.99575668997171   -3.39082059725240
N         0.44575000348001   11.25719858388930   -5.40667824295946
C        -0.21916892797065    9.56521150037114   -2.36305193229475
C        -0.21951626520384    9.57272975026300   -3.76626163857673
C        -0.04403637389194    8.38486729197839   -4.46083257188784
C         0.11776384996763    7.17551256624392   -3.79984907586873
C         0.10418068701113    7.17757171471914   -2.40991338862371
C        -0.06569128683572    8.34974297076499   -1.70170231838694
C         0.30557837753192    5.91094138949210   -4.58158542349408
C        -0.34113924794341   10.85463881279238   -4.49042570195205
C        -1.47139341229457   11.72750666721420   -4.13228315454459
C        -1.35968742755673   13.10541508250943   -4.29534878264254
C        -2.41085453206475   13.93433588884938   -3.93550962978113
C        -3.59097629903081   13.41260103822102   -3.42874823959567
C        -3.70265972070999   12.03414000100605   -3.28987445364351
C        -2.65808182735009   11.19350205636712   -3.63062722219740
C        -2.26829465644398   15.41628360708372   -4.14189899664328
C        -4.99416299091720   11.48063994959983   -2.75993327037573
C         1.61422916374926   10.62039414463145   -5.76470995825107
C         2.57301870037940   10.23511241562963   -4.82342479832884
C         3.76906922126650    9.68891421048377   -5.23786555198318
C         4.04179554545355    9.49081029495171   -6.58691699438694
C         3.08786106631652    9.88362476382843   -7.51901654605497
C         1.89761900697734   10.45665541422721   -7.12133849328841
C         5.34695068055283    8.89782717283621   -7.02451244223002
C        -1.82825924093415   12.94187593851230    0.54854495316973
C        -0.64406324319075   13.61923688835674    0.26460317485677
C        -0.68012213463517   14.87067327312000   -0.31827760630937
C        -1.90051966443969   15.45654101395099   -0.61534511824685
C        -3.07873713146800   14.78163856293793   -0.34333771043724
C        -3.04935295603186   13.52515977294372    0.23710128341221
C        -1.87676165748950   11.73727347655051    3.10662057778196
C        -2.33206891938867   10.77556539201620    4.00495736919961
C        -2.46423033120469   11.08055964723868    5.34610840853688
C        -2.14199768051391   12.34673581928875    5.80641745635435
C        -1.67653259013301   13.30342811001239    4.92047201372388
C        -1.53763388913785   13.00112545973862    3.57837694344986
C        -3.21849719274068   10.44160707843065    0.96776485621413
C        -4.41024208267563   10.75290304348017    1.61756094433098
C        -5.56713525325112   10.06651796865435    1.29903748545245
C        -5.54524953243004    9.06486690830826    0.34162357654724
C        -4.36235834449635    8.75133903041613   -0.30622574592802
C        -3.20412745267282    9.44039953793905    0.00304450277908
C         1.26551112763480   11.01298233392621    3.88055290771855
C         0.94176080514849   10.93592331012289    5.22736151226138
C         1.11749197806102   12.04544258713938    6.03645742086581
C         1.60874709538072   13.22792117310642    5.50953081813530
C         1.91727348354096   13.31343482866772    4.16067571890660
C         1.74311337441411   12.20997710926823    3.34916966731604
C         2.79890076734607    8.90177453552170    2.74529958566269
C         2.94740324544551    7.66351974571392    2.12431504250363
C         4.18065187778792    7.04462657605387    2.10060648562307
C         5.27398587787000    7.65766723588072    2.69380084194539
C         5.12986173816331    8.89031689679314    3.30631752043958
C         3.89606070126764    9.51821997705140    3.33160107740919
C         0.15605883436754    8.33535505090689    3.44522289424752
C         0.58305976436626    7.66399018269105    4.58726787308208
C        -0.19471316680333    6.65326388275480    5.12187415248661
C        -1.38740433986081    6.29285807758892    4.51318979779444
C        -1.79945670897250    6.93525807702441    3.35730964926579
C        -1.02732444334154    7.95226130413282    2.82521239503714
H        -0.03631354922662    8.40914300067998   -5.54197889854972
H         0.23488743577564    6.24924780704044   -1.87170765782914
H        -0.04828434289465    8.33426867281483   -0.61046999294102
H         0.52476855348582    5.07483133277657   -3.92217041091133
H        -0.59457655459368    5.67725460568873   -5.15040456410687
H         1.12595037259766    6.02355888944445   -5.28904093405295
H        -0.44205022120493   13.51046395442410   -4.69283246223344
H        -4.41091568690769   14.05805254794860   -3.15531496580007
H        -2.76102403996088   10.12497417970673   -3.51381312109206
H         2.38040097256504   10.39180359515102   -3.77259869563274
H         4.50238862346602    9.40201309075197   -4.49744928876993
H         3.28448701617071    9.74375936522599   -8.57295463392065
H         1.15834629915371   10.75758673482597   -7.84860384309342
H         5.71087758269152    8.18096044573564   -6.29148918717795
H         6.09795398690229    9.68231165945468   -7.12760416429632
H         5.24576605889292    8.40058818136191   -7.98669224628870
H         0.30617369122369   13.14120852635731    0.48913194490753
H         0.23866253081459   15.38866618263065   -0.54824788799311
H        -1.93219524350351   16.43664130235522   -1.06613003316804
H        -4.02756779556895   15.23746042366197   -0.58499411666899
H        -3.97089493763871   12.99818314318059    0.43341327034161
H        -2.59938015732638    9.79142614105265    3.64750967932196
H        -2.82539145684746   10.32881681492728    6.03279790001230
H        -2.25488586534831   12.58727005104797    6.85295563150952
H        -1.42331493105364   14.29152321706344    5.27503593877513
H        -1.17644660749025   13.75198696025490    2.89036515998504
H        -4.42838441641418   11.52498078227540    2.37434789074130
H        -6.49130926214105   10.31553373991949    1.79946100895772
H        -6.45203311498161    8.53228032805992    0.09713590909870
H        -4.34386815022638    7.97692330743973   -1.05831281122506
H        -2.28002090666069    9.20910911329970   -0.50875396947007
H         0.54555453191379   10.02080476533078    5.64170681872630
H         0.86983879553412   11.98467564727960    7.08599281295034
H         1.74693722337717   14.08636458816563    6.14996306993920
H         2.29229550534172   14.23788196874212    3.74706958389484
H         1.98385598181687   12.25066385757020    2.29128584627547
H         2.09064098806094    7.20338305730761    1.64903864677596
H         4.29534396671678    6.08828621481725    1.61211738736530
H         6.24056954933360    7.17652005120668    2.67046626318405
H         5.98314818299438    9.37142860910206    3.76179771871938
H         3.78992126589074   10.48570655909548    3.80205008968983
H         1.52880472412085    7.92503309162622    5.04260150952232
H         0.13271737704140    6.13800413528224    6.01297858570128
H        -1.98840859069754    5.50074941918627    4.93437808565930
H        -2.71838301472124    6.64397921203516    2.86963385819447
H        -1.33122681771927    8.45895790385649    1.91402521846727

