100
CSD_code = VIBYEL | q = 0 | S = 0 | Stoichiometry = C39H54Cl2N4Ru | MND = 5
Ru       12.23916334643712   12.56646073920262   20.63604074348394
Cl       10.96913351240212   13.15861988297475   22.51975289612786
Cl       13.93745801076610   12.59265030336975   19.01201982562407
N        12.55003346568414   15.37580172818474   20.16140191804324
N        10.90631931513348   14.82162572494751   18.88224229038146
N        12.19723502178010    9.88448075698848   22.12385779857068
N        14.20843236682234   10.64972427684604   21.92389122548135
C        10.94022068217585   11.56108777902839   19.67679509131876
H         9.92285071475135   11.97281972713869   19.64163849301152
C        11.04904513331573   10.31854444728406   18.98919570167531
C        12.27369223809849    9.64321916979520   18.82331379024137
H        13.17208070729766   10.09957476968559   19.20988441420019
C        12.33735634709787    8.44799553233181   18.14091953420441
H        13.28838015490433    7.94943704106051   18.01749388374705
C        11.18950645695864    7.88224037980619   17.60306901566621
H        11.24341844239767    6.94373220735503   17.07089460373881
C         9.97329468425448    8.53537031000672   17.74249778669612
H         9.07908917806284    8.10413877351293   17.31503381375903
C         9.90093015641614    9.73303026060814   18.42035541425772
H         8.95271315794434   10.24275062871230   18.51978452528876
C        11.77219072696120   14.36273339885670   19.78128891186952
C        12.27443842442226   16.62335557265902   19.46829030812410
H        13.15005116583479   16.93446221331322   18.88659748787397
H        12.03640707644356   17.41420752677174   20.18804176959586
C        11.08356691956947   16.24420773129997   18.58571377232235
H        10.17503321835770   16.79791472583099   18.84190725004400
H        11.28353603724154   16.38341577129452   17.51940466769160
C        12.91877961750196   10.90231391616133   21.65199624425113
C        12.99833069852968    8.82970947531895   22.72645439024738
H        12.88014515918055    7.90087577101626   22.15684968758169
H        12.67204128786636    8.64655296021281   23.75613503606202
C        14.41466628328726    9.39233566832786   22.64089956557006
H        14.85407431155304    9.58450611523473   23.62508008315691
H        15.08997013402026    8.73899940832230   22.08392902909178
C        13.68858106320947   15.25349401282489   21.02295491953258
H        13.70738378925491   14.24073977250644   21.45706065071259
H        13.63606473236088   15.98678215108993   21.83350026059401
H        14.62017371287275   15.40216973921227   20.46436106071004
C         9.88476131909213   14.09396250688668   18.21642348305688
C         8.60124216182094   14.06247437412461   18.77202744881457
C         7.60922184763985   13.36459375550955   18.09619581601142
H         6.60990834068627   13.32750378059906   18.50274145211320
C         7.88406360919454   12.71489414913505   16.90823868995564
H         7.10156983778221   12.17241069354875   16.39738762575434
C         9.15430747254383   12.76397172482382   16.36867097674563
H         9.35303132405687   12.25995984321536   15.43574758346971
C        10.17588040550748   13.45480491231922   17.00729558700732
C         8.27828497036288   14.77060203604921   20.06693891805586
H         9.19736251229257   15.19220240798290   20.48244829217619
C         7.72558782512485   13.80072439801104   21.11196944931669
H         8.48105257390709   13.06269775134972   21.36847054735702
H         6.83593722434492   13.28859832778230   20.75426728483395
H         7.47043595330386   14.34486852702119   22.01824403446531
C         7.28887607057869   15.91066559630480   19.80693681381220
H         6.33037650617002   15.51928729201347   19.47458026304429
H         7.66389907805044   16.58356375629930   19.03696951348640
H         7.12759124090414   16.48226943907030   20.71832025360914
C        11.54302031418066   13.53988966019524   16.37262006612671
H        12.23831961066623   13.99816180842921   17.08102416957379
C        12.10406440193256   12.15860173591850   16.03911348262882
H        11.47802663164595   11.62870207808352   15.32575419533978
H        12.18423382716422   11.56634414880107   16.94587743729317
H        13.09995588495415   12.26341569070642   15.61584028849995
C        11.47159948055545   14.40971361275339   15.11302187702671
H        10.84622556478988   13.93723241249612   14.35891181777322
H        12.46697702107494   14.54761681374030   14.69694962996386
H        11.04925852201755   15.38887618996017   15.33471081362608
C        10.77321704277410    9.72239323967613   22.13085211848488
H        10.46555100458827    8.93643822640610   21.43440310402418
H        10.30027293219387   10.66254931459770   21.84921297883353
H        10.44738673737653    9.45165104525828   23.13870165361154
C        15.25768343804585   11.60883812052633   21.85294902263653
C        16.23937706247581   11.49385369625390   20.86069465149506
C        17.21616393602546   12.47661533071950   20.78574053295549
H        17.97214313713050   12.41869165725636   20.01934665999552
C        17.23543928504449   13.52941609541332   21.67946383363513
H        17.99484699749513   14.29386582811958   21.59819420689216
C        16.31390505208307   13.58256984151917   22.70627934735820
H        16.38160778967324   14.37483318930426   23.43662638554288
C        15.31473114335801   12.62286439466567   22.82136887863232
C        16.31358694814165   10.28264138211156   19.96099211124928
H        15.35188366057616    9.76387177547941   19.99692503124805
C        16.59380244226417   10.62435568160654   18.49834454352447
H        17.59819742687714   11.01834961503232   18.36700203987664
H        15.87464846150068   11.35911092970983   18.14952632273258
H        16.50202622416955    9.72634954514729   17.89077742244742
C        17.40967531179933    9.34980601806081   20.49364272148026
H        18.38347259942429    9.82486427612068   20.39609777021919
H        17.42253272990836    8.42182029294029   19.92563235872409
H        17.25883131482690    9.11289709537149   21.54562459679905
C        14.43986666426909   12.59620471975146   24.05913178111617
H        13.61593898302307   11.88981561964190   23.91315427176992
C        15.30666989791314   12.10214367061264   25.22598495691856
H        16.06716447677120   12.84121069412437   25.46866893150451
H        15.81348736941189   11.17096760385263   24.97659089450865
H        14.69208916244890   11.93690526155588   26.10848553690304
C        13.80897537545805   13.94005803382894   24.42402866921834
H        13.02896381797749   14.20285377750318   23.71475929810747
H        14.54373696303239   14.74036007740005   24.46208473452961
H        13.34116562852927   13.86134415828617   25.40326696153056

