39
CSD_code = VICBIT | q = 0 | S = 0 | Stoichiometry = C15H21AuClP | MND = 2
Au        2.02055050529287    0.20092397521099    1.89555269508593
Cl        0.73783755086828   -0.64925612611959    3.56200295998761
P         3.24591968078020    1.04959723018531    0.21695827991233
C         7.17621006798546    2.14721964626744    0.78618824192007
H         7.89945625365466    2.20369040782310   -0.03151665145690
H         7.47284011099699    2.89411487533815    1.52714965588238
C         5.77979010166738    2.38205346242516    0.30494422078336
H         5.49616920737135    3.30087479014250   -0.17759184157319
C         4.99048377062318    1.32240793381567    0.56843180598148
C         5.78284122883565    0.29749998402556    1.24421789952525
C         5.43080268265808   -0.95463254727948    1.72024566612209
H         4.41500498430013   -1.31717139833096    1.62936262865457
C         6.40666214148430   -1.72256749193851    2.33266740708490
H         6.15283065460805   -2.69900107408860    2.71656263555540
C         7.70534064616416   -1.25094971242306    2.46303612690477
H         8.44868876919656   -1.86778088408057    2.94545629352180
C         8.06144922678473    0.00339819911751    1.98735602499347
H         9.07328982807454    0.36566681785151    2.09607980932417
C         7.09416270287430    0.77464975830506    1.37832696769427
C         2.62623549143986    2.70974255848483   -0.31453046792436
H         3.30597268661653    3.12652744671406   -1.06706493187594
C         2.61140727730274    3.59411715817561    0.93155625736246
H         2.29833173502628    4.60485847874229    0.67615715641442
H         3.59391884650347    3.64221950036635    1.39836793922468
H         1.90991115705706    3.19188480295031    1.66256740598162
C         1.21769285981234    2.58641319554977   -0.88731901798556
H         0.77146177986473    3.57360629080468   -0.99519911206939
H         0.58953207022699    2.00087752785108   -0.21495817370712
H         1.22034113424351    2.11035547837843   -1.86501248363249
C         3.40531133002753   -0.05511177758852   -1.27241259978854
H         4.14263667181009   -0.80067059346846   -0.93731255550658
C         3.96754760768676    0.66991204043613   -2.49054452976272
H         4.21009506183216   -0.05197477165251   -3.26824399479311
H         4.87701360817464    1.21068849851350   -2.23152418121168
H         3.24518691519452    1.37354966118233   -2.89816193461726
C         2.09844939144629   -0.78200873286168   -1.57081835652467
H         2.27048682824971   -1.57095332456096   -2.30085615707255
H         1.34760058681280   -0.10682346647176   -1.97304120765644
H         1.69863684645169   -1.23414781779107   -0.66297988075639

