102
CSD_code = VICCUG | q = 0 | S = 0 | Stoichiometry = C55H41IrN4O | MND = 5
Ir       -0.55360543775620   12.80253800831618    2.60622466150663
N        -1.18407814485114   12.72236472723454    4.52985825007883
N         1.20566441571833   11.95638275843254    3.15239725586813
N         0.15368283483450   13.03403369066723    0.72712715896559
N        -2.21932811270000   13.83382558019346    2.11737031169168
C        -2.39963257054014   13.12240444320989    5.00576853437857
C        -2.53317115147975   12.73555055567075    6.37977757913820
H        -3.40324967290436   12.90301009858201    6.98381660928775
C        -1.37840588554125   12.12216697906263    6.73000490797000
H        -1.12051970901931   11.68985636429286    7.67666618317706
C        -0.53400729006228   12.12697696297192    5.57119214173136
C         0.74671146014869   11.57773186399737    5.53818937851301
C         1.54509920954205   11.51597016529009    4.39827843551301
C         2.86849555465605   10.96400330277447    4.37298509583491
H         3.38782107613250   10.57119898860797    5.22469041348293
C         3.30735729499404   11.04977366918892    3.09601943225581
H         4.24727278059352   10.72357984270140    2.69599730271556
C         2.26394367277570   11.67619863582860    2.33791749081352
C         2.33234518971901   11.92266614481053    0.96806473018195
C         1.33020342587553   12.55252324450434    0.23298749067399
C         1.41714147130155   12.83367400660907   -1.17127758505619
H         2.24745217328486   12.57606283981232   -1.79920740902832
C         0.27613927421242   13.47413263917687   -1.51515254803664
H        -0.01805307387862   13.82719074114516   -2.48380825065361
C        -0.50736955357515   13.60265075652593   -0.31999164614611
C        -1.75327838709609   14.22302110952472   -0.26495054841626
C        -2.52380593001404   14.33934541049453    0.88976596222305
C        -3.77332672152889   15.04317290984121    0.95132939296546
H        -4.22465944541368   15.56601074342198    0.13108073272448
C        -4.22760218503666   14.92762740817028    2.22004917108201
H        -5.12341470478460   15.33806465571309    2.64327723883914
C        -3.25828387671115   14.15165849634958    2.94010368154224
C        -3.37816042652678   13.80418031630423    4.28447431980334
C         1.29058099573524   11.02872279147529    6.79787171256796
C         1.50267533251072   11.85541036186514    7.89761195252216
H         1.27486542485174   12.90883396513361    7.82021667981039
C         2.01120943810776   11.34213270098120    9.07456167478442
H         2.17508583519748   11.99804262691567    9.91807969641438
C         2.31609883027279    9.99041492425097    9.19209219889568
C         2.10171021541008    9.16846660558616    8.09392016474400
H         2.33009107911590    8.11416924813286    8.16453021418407
C         1.60010359780537    9.67817241630785    6.91028306425242
H         1.43040993748304    9.02804883157406    6.06481532050286
C         2.86957818752740    9.44926782619288   10.47522347517012
H         2.94898843066817    8.36569167139827   10.43952238473827
H         2.23182324865109    9.72621121908936   11.31339031818434
H         3.86075235464527    9.86218447139502   10.66229046241316
C         3.54567519300533   11.48658862987479    0.24240762061512
C         4.77643064911879   12.08490610194094    0.48404389295701
H         4.84515364043210   12.88216646080362    1.21012232351794
C         5.90356242010706   11.67718267528645   -0.20625275095614
H         6.85112738325300   12.15877345452700   -0.00942940061661
C         5.83363421948817   10.66071736970819   -1.14892202937113
C         4.60096700733992   10.06145033076906   -1.38526338297447
H         4.52865689190013    9.26732603796990   -2.11503177633430
C         3.47121068103109   10.46859017999299   -0.70344367679892
H         2.51953715768560    9.99492478629388   -0.89754191315801
C         7.04865750102682   10.20953425887105   -1.90103410104968
H         7.91884325347798   10.80099386562714   -1.62779464699962
H         6.88729409118891   10.30223471123618   -2.97435329133032
H         7.25953014763502    9.16216560476649   -1.68694327532523
C        -2.30003502492862   14.79267242362849   -1.51470337756559
C        -1.67444012526188   15.86340837777210   -2.14581956140016
H        -0.77969917572799   16.28624629738275   -1.71165222281660
C        -2.19712336768399   16.39296054101535   -3.30946599581042
H        -1.70398236058662   17.22848759977574   -3.78636912714175
C        -3.35139777170191   15.86642265851576   -3.87907031501167
C        -3.96986144055477   14.79511181547828   -3.24855674055156
H        -4.86604489574128   14.36894177095629   -3.67710262782342
C        -3.45569147195673   14.26513196589720   -2.07932929723511
H        -3.94061868500998   13.42755498383066   -1.60013370039322
C        -3.90722688305907   16.45619410393397   -5.13973287687996
H        -4.75575673680638   15.87952272400899   -5.49907143549261
H        -3.14582806980129   16.47997921481860   -5.91815777966939
H        -4.23457346601540   17.48096315807501   -4.96476077725945
C        -4.62105323578666   14.18633287613432    4.98656179251386
C        -5.84696997569305   13.66586666237117    4.58160707070740
H        -5.87826321595551   12.97088401739087    3.75503027608360
C        -7.00999622291159   14.02346800534408    5.23442493547979
H        -7.95422391818981   13.60794763758477    4.91165757125818
C        -6.98613384853243   14.91397455008156    6.30262483087348
C        -5.76219428781849   15.43311023727557    6.70208625324490
H        -5.72151750784799   16.12969111216278    7.52773782992712
C        -4.59319109834240   15.07331184260477    6.05668052044493
H        -3.64906929901160   15.49243222122757    6.37378018150633
C        -8.25714795183654   15.28972167679173    7.00170255353131
H        -8.08466738959623   16.08144911622297    7.72643163241661
H        -8.66891451109615   14.42660520997671    7.52472801525001
H        -9.00233399764552   15.62842961419708    6.28351005265385
C        -1.41304941054097   11.07302135632206    2.06401907479419
C        -1.00208569925759    9.92255791720770    2.91263609993450
C        -1.69533077971370    9.61378482214579    4.07955708963838
H        -2.54617783707205   10.21097588824141    4.36981667918962
C        -1.29886475684144    8.53942467340882    4.85473032039722
H        -1.83763445098852    8.30621400329125    5.76094680639449
C        -0.21346731911033    7.76751881230031    4.47464600992897
H         0.09287247849227    6.92902578827325    5.08316803097250
C         0.47267455822130    8.06637808365500    3.30845486843433
H         1.31655632693704    7.46378256824893    3.00646418767965
C         0.08078535105351    9.13612462566713    2.52595256334258
H         0.60985780613950    9.37065897932593    1.61487091591139
O        -2.15411103125078   11.02053788005648    1.12640088555175

