54
CSD_code = VICDIW | q = 0 | S = 0 | Stoichiometry = C26H21ClN3PPdS | MND = 4
Pd        1.65440360016543    0.99605597645945    3.39201213643646
Cl        5.75590209115801    2.96302800871317   -0.24655008226369
S        -0.16369585767248    0.41767752102764    4.78742469710385
P         0.83905213220214    2.90824647340614    2.58839326348718
N         2.45057652798288   -0.61753947725334    4.12931900216609
C        -0.70334712158053    3.62808459651401    3.23454200842345
C         2.07217059997526    4.20561408049888    2.90952118782704
C         3.39394848886503    1.10725791470945    2.37785961133022
C         3.88213082745580    1.98114806218759    1.42216397740304
H         3.26935386327892    2.78328182308255    1.02789961720276
C         5.17963120592284    1.84134498208498    0.94171530552949
C         6.01918661079403    0.83662326847402    1.39019823198810
H         7.02277404095837    0.75221634599606    1.00356212696614
C         5.54499921838283   -0.05468185389594    2.33562730663998
H         6.18312213943027   -0.84945887602679    2.69494538378457
C         4.24704738654049    0.07439851439935    2.82614398529848
C         3.67345732825336   -0.83012974190182    3.79112622144271
H         4.22618280712319   -1.67148847827822    4.20469908332425
N         1.82343858039449   -1.41314983388422    5.00029489380702
C         0.61631793185707   -1.03077775482605    5.33182433144576
N        -0.09786713715875   -1.81854860107201    6.16058706962323
H         0.34958549615489   -2.60749062490595    6.59292480347420
H        -0.96733278007206   -1.47262142875832    6.52505282041919
C         0.45315988871806    2.82279357476849    0.81531220559415
C         0.69818877538334    1.60072183522917    0.19333410271335
H         1.12295830026511    0.78205201226649    0.78561180628537
C         0.40119037573528    1.43382581417911   -1.14674119347508
H         0.59383734008133    0.48798820709124   -1.63092297970314
C        -0.14778021815646    2.48341877919797   -1.86654846392241
H        -0.37575155436493    2.35695519512065   -2.91458702284788
C        -0.42125087803502    3.69064313517752   -1.24260305228190
H        -0.86851924751834    4.49829655631757   -1.80360131970503
C        -0.13191703559411    3.86172272990748    0.09925608019040
H        -0.37612202597086    4.79034295392036    0.59688309249840
C        -0.76040143484503    4.82343056978045    3.93964208436473
H         0.14202581877070    5.39270608120534    4.11548941103642
C        -1.97695133994459    5.27862196512823    4.41936554365768
H        -2.02170917189524    6.20852638893410    4.96764418991099
C        -3.13128865318602    4.54557134844346    4.20343080032744
H        -4.07666721821329    4.90463381591335    4.58296433545458
C        -3.07461104266706    3.34657950959204    3.50846549335154
H        -3.97397423617654    2.77023381420187    3.34922240108480
C        -1.86500392345173    2.88715252763039    3.02779524499518
H        -1.79939757330142    1.94288380966333    2.49969495171809
C         2.84072323852808    3.97114630877618    4.04988164036410
H         2.65393435219205    3.06140035829504    4.63826651818164
C         3.82767257272783    4.86445169967079    4.41814993073997
H         4.42375636761750    4.68343438556448    5.30024857943815
C         4.06011245325274    5.99004517329166    3.64150879635758
H         4.83802760607287    6.68506975602273    3.92065466420629
C         3.30581175655233    6.21995816397466    2.50322480302351
H         3.49777750897483    7.09261771420751    1.89619208144689
C         2.30864401300070    5.33250066321477    2.13430370477906
H         1.73148720494655    5.50788425657348    1.23827458741581

