105
CSD_code = VICDER | q = 0 | S = 0 | Stoichiometry = C56H43IrN4O | MND = 5
Ir        6.46296806451788   19.03932936784095   10.90847843869492
N         4.68098359379932   18.67338637936280   11.79571554191098
N         5.73350275460569   18.32258718879195    9.15677979139788
N         8.29096712906661   19.20416367732822   10.06393995895766
N         7.22658877802023   19.58647375769320   12.69810615978577
O         6.87553329987700   21.81702646613223   10.70208135226346
C         4.37332337871051   18.84676914456143   13.11398482182969
C         3.03154700619906   18.40573642099528   13.36076625995980
H         2.55306587510716   18.40021147311748   14.32051529851106
C         2.53002694604338   17.98911941967473   12.17485949435497
H         1.56172488028734   17.57328078218426   11.97712374055431
C         3.56144005172622   18.17479107931826   11.19599341386776
C         3.41717657269183   17.86766065223891    9.84395479465558
C         4.44140145085588   17.96552222820739    8.90409642057752
C         4.27591907783525   17.70461450260394    7.50393373747574
H         3.35135227687060   17.43448664599375    7.03306085794282
C         5.48463100251491   17.88612169798294    6.92312328634571
H         5.74169848987189   17.79121596747905    5.88631176960942
C         6.39496269621267   18.26299523562562    7.96479846663678
C         7.74472268476958   18.54419542511619    7.76017738203296
C         8.61696140083472   18.96769972314377    8.76117301683498
C        10.01339683636919   19.22704906588248    8.55610201756905
H        10.53379137115462   19.09360711550205    7.62794946434004
C        10.51146517786683   19.65378775037751    9.73916857374195
H        11.51556729557014   19.95461098757464    9.96470736288138
C         9.42654911738917   19.63958502722506   10.67841362869673
C         9.53695402360569   20.05297908699965   12.00358445957572
C         8.49464212367781   20.02832036536372   12.92679800608546
C         8.62820456896399   20.43169325383337   14.29758630821294
H         9.52874262568625   20.80709452776984   14.74247030866321
C         7.42499198227906   20.23705230469054   14.88410272931422
H         7.14233138549371   20.44000804693483   15.89840627060350
C         6.55319725745883   19.70067725781877   13.87810279832918
C         5.22256421579251   19.35040274205415   14.09834063881143
C         2.09515744310565   17.40118048169435    9.37949039139172
C         1.94163216804303   16.13962439820929    8.81103254065552
H         2.80085369749101   15.49067997553247    8.72138879327418
C         0.70223321629048   15.70965489939488    8.37944465115055
H         0.59821813053022   14.72482280550081    7.94601980907902
C        -0.41834489791683   16.52526535001169    8.49476115786834
C        -0.26234289390566   17.78257351196859    9.06250582858118
H        -1.12049336604659   18.43273496696990    9.16249772485425
C         0.97454406922048   18.21468083148922    9.50468562149180
H         1.08563389680534   19.19524969377872    9.94172212265596
C        -1.75562994519617   16.04313113000477    8.02066410850235
H        -2.51110343428090   16.81707677283874    8.13053364545510
H        -2.06778097796034   15.17057031957625    8.59393704992021
H        -1.70563935938535   15.75007560040829    6.97275119511092
C         8.28081864156227   18.39937687130105    6.39014617733757
C         8.76007662986932   19.50801860503407    5.69882530069293
H         8.73182959754940   20.47901060658309    6.17199095113604
C         9.25845166878056   19.37362932033342    4.41767306001573
H         9.62362419284643   20.24473118560718    3.89205967327956
C         9.29952863475909   18.13216363149535    3.79278088241900
C         8.82207387908143   17.02783589419523    4.48611972495365
H         8.84775303337688   16.05303636587498    4.01951795719774
C         8.31579599079745   17.15736757316871    5.76622209499856
H         7.95401360217995   16.28786874191184    6.29598734703053
C         9.83162277684270   18.00176364263663    2.39804165845232
H        10.04933252805317   16.96366683381851    2.15918146883385
H        10.73938968076728   18.58958540988761    2.27586791251829
H         9.09721055583891   18.37046259905481    1.68119101755954
C        10.84679052067880   20.56583118641537   12.46178018172622
C        11.94498372796966   19.72302995719371   12.58071166627276
H        11.83912773644575   18.67466382262473   12.34060297801546
C        13.16346929118247   20.21505173757696   13.01316252831738
H        14.00646886234752   19.54436444556616   13.10431201320227
C        13.31767946025047   21.55745945428646   13.33061475194456
C        12.21618391446431   22.39789181104009   13.20715760230465
H        12.32039388631518   23.44657606572465   13.44769223924978
C        10.99551133101115   21.91167994140382   12.78218952371953
H        10.14689056392842   22.57222938827682   12.68299858183594
C        14.63233706575538   22.09979556175506   13.80371198483421
H        15.41158565713776   21.34427759492222   13.74145926267487
H        14.55354865665816   22.43000028886483   14.83945231325715
H        14.92886261517605   22.95886033059773   13.20367883780301
C         4.67554591428904   19.51613505409226   15.46133655586192
C         5.19052619647842   18.78689903603022   16.52899442856118
H         5.99439448468891   18.08663382021120   16.35317076604388
C         4.67361162252977   18.94347214651612   17.80008602763058
H         5.08166187791256   18.36673421312317   18.61828009290741
C         3.63429113097231   19.83428167690321   18.04476604584616
C         3.12369318311306   20.56157971786009   16.97797133115420
H         2.31751569751729   21.26164130764505   17.14675904858092
C         3.63312456903135   20.40413699373214   15.70227030606364
H         3.22973827926928   20.98224897922430   14.88344384819414
C         3.07583454290032   19.98567265111799   19.42697644601443
H         2.43613752660521   20.86204793055280   19.49529472964480
H         3.87764582609600   20.07737955500607   20.15746785200252
H         2.48463484042947   19.10825788256361   19.69068462851758
C         6.07497933703805   20.95958361343042   10.46855978405301
C         4.74380954995456   21.15047508913586    9.83728463979478
C         4.61797069491430   21.11983555328284    8.45014198011878
H         5.49529907990759   20.97338474746389    7.83858605641671
C         3.37772331740808   21.26945920946729    7.86342818494843
H         3.28960641628026   21.23104748821445    6.78739823065234
C         2.23844412445672   21.46841817412935    8.63542159646321
C         2.37730412593649   21.52891046641422   10.01638608676617
H         1.50755195674999   21.70564180916400   10.63398449254795
C         3.61201248034799   21.36719869006117   10.61666088221324
H         3.70578213652511   21.41183155844858   11.69109235457870
C         0.89650619792553   21.59429797300202    7.98215201453646
H         0.94483107014950   22.27201985281420    7.13220142753782
H         0.15228316845640   21.96260950223182    8.68371494203553
H         0.57185281197757   20.62036093620806    7.61501431769581

