127
CSD_code = VICDIV | q = 0 | S = 0 | Stoichiometry = C63H57IrN4O2 | MND = 6
Ir       14.18974701469199    3.87363497453555   10.12903262266530
O        16.67115896661389    3.67902519914707   11.48264408273374
O        12.38671082464189    3.27541730171634    8.43314668703281
N        12.72938078973679    4.73066722105112   11.25483841741637
N        13.89678376168836    2.11945547534573   11.09840109727653
N        15.53624786674599    2.98573618844276    8.90871759983385
N        14.38274018263965    5.59991673591891    9.07626223955352
C        12.26568324989610    6.00684930425925   11.14949510591133
C        11.25708929412617    6.23753936511206   12.14374879186101
H        10.73245638757271    7.16178805598967   12.28670777766707
C        11.11535283579531    5.08404579511512   12.83615281810942
H        10.44032328515618    4.87706745178568   13.64354207662209
C        12.04861119117168    4.14696526984005   12.27989841636420
C        12.20240463416909    2.83609359423728   12.72954000874638
C        13.07923414238934    1.90838675794866   12.16733042220995
C        13.26773157267528    0.57390269472106   12.66240052556733
H        12.76746082527219    0.15670282825416   13.51451702373739
C        14.19296787158288   -0.01295709622442   11.86850531966412
H        14.59694474795905   -1.00343096277548   11.94468752342465
C        14.57643727606417    0.96001165504458   10.88501408241597
C        15.51999403346261    0.73078683382242    9.88472858756089
C        15.93787249621014    1.68751302903451    8.96131450101411
C        16.86227073799805    1.42320783545930    7.89347908687447
H        17.30769767305361    0.46970835861762    7.68677894052995
C        17.02859227857427    2.58488286595493    7.22147165933773
H        17.63752847182855    2.77041562193386    6.35812410584802
C        16.20328638737272    3.56354565357133    7.87309027503051
C        16.08473113680227    4.88653075200016    7.45154974069168
C        15.21765702653424    5.81885965610536    8.02038124330228
C        15.05741871546763    7.16366422923002    7.54873250229526
H        15.60518752646309    7.60149924423810    6.73734436196336
C        14.10133498001687    7.73851575741915    8.31610770491679
H        13.70155499499308    8.73045278365391    8.23661296526651
C        13.68935385599458    6.75644215696863    9.27777073514472
C        12.69848877623678    6.96837683922215   10.23744565870429
C        11.38850038189103    2.40425718588347   13.88570379485768
C        10.44550689928052    1.38875057415427   13.75782699823954
H        10.30104780699056    0.91850099788535   12.79570262360245
C         9.69087498285889    0.99044320927933   14.84391908074615
H         8.95901720634805    0.20319399819916   14.72786989034854
C         9.85822419402355    1.58712786563034   16.08886593068847
C        10.80010607039309    2.59934759728994   16.21377260051605
H        10.94757106622043    3.07525985871032   17.17326284129586
C        11.55339281293072    3.00639159856896   15.12812156898810
H        12.28590573380689    3.79208343161718   15.23794673985662
C         9.03881763622113    1.13580708203233   17.25965473970383
H         9.25072866952952    1.73848026297686   18.13928647235084
H         9.25541937235725    0.09371086232691   17.49359182827292
H         7.97593819089340    1.21052577921101   17.03295523674772
C        16.12761380535628   -0.61394432844016    9.80244229648337
C        15.35427593972319   -1.73180430385651    9.50530817293325
H        14.29498526938136   -1.61178562918517    9.32767739774326
C        15.93264334866099   -2.98396343414230    9.42544216474368
H        15.31982354201048   -3.84270379810118    9.18869594955002
C        17.29416488237004   -3.15735192163200    9.64660731964989
C        18.06209477049772   -2.03988131649586    9.94764732891676
H        19.12177666951259   -2.15454770474386   10.12764907342959
C        17.49041831439583   -0.78338979997636   10.02190512818461
H        18.09451984129618    0.07804320783351   10.26523029719312
C        17.91304757617450   -4.51846526581561    9.54278086484165
H        18.89640619329241   -4.53523653555741   10.00631501207360
H        18.02473944138034   -4.80029642166911    8.49511874072858
H        17.28419700393134   -5.26590490343397   10.02299432135873
C        16.92267232210363    5.32148254218561    6.31300486935314
C        16.35169377316556    5.67737514183255    5.09644282565203
H        15.27826028145120    5.62847183338071    4.97815355738412
C        17.14494590771976    6.08155505076863    4.03850767839161
H        16.68360263695489    6.35177770206168    3.09878056692224
C        18.52610793198352    6.14612460516079    4.16696890712549
C        19.09414062199137    5.78861351054893    5.38451892703914
H        20.16761114989430    5.83381916352015    5.50303933605700
C        18.30679931407201    5.37851900387941    6.44283182287249
H        18.75886764530541    5.10732874978554    7.38564986150695
C        19.39009862340744    6.56794480094953    3.01743878952818
H        20.22640890600305    7.17166978428826    3.36390036367442
H        18.81901719336070    7.13995283061173    2.28991347434891
H        19.79745191236605    5.68986209558098    2.51479574047682
C        12.05503064159019    8.29785955228925   10.28123161246458
C        12.79753663310020    9.43820086085057   10.56950198425839
H        13.85634015382867    9.34091589581947   10.75664764977338
C        12.19173804053195   10.67886046766506   10.62561742177695
H        12.78369104740163   11.55293325909656   10.85950663018087
C        10.83052103116329   10.82031812196558   10.38632680764466
C        10.09266529228552    9.68235699544093   10.08456926445717
H         9.03353548742703    9.77234660191560    9.88722846556659
C        10.69290330344064    8.43852403154579   10.03456348295284
H        10.10476844682122    7.56400378515482    9.79364779914475
C        10.17858865050562   12.16887399375012   10.42475174850829
H        10.71538016049570   12.84090137524645   11.09035707068399
H         9.14597082503204   12.09111450632567   10.75786573501292
H        10.17743823887485   12.61124158112809    9.42761996283302
C        15.64161760130059    4.29330341268001   11.45914703579560
C        15.26178253250919    5.35849562656063   12.42232208098745
C        14.75007985450152    5.00185993419033   13.66548025318603
H        14.69096538552700    3.95687409550867   13.93275134876869
C        14.30375270352815    5.97105127601602   14.54455145027102
H        13.90466283200406    5.65283300640495   15.49406924693404
C        14.36701211971252    7.32184687641270   14.22508821269771
C        14.93850621125916    7.66601253220989   13.00286558484240
H        15.04313444127589    8.70648640980122   12.73573695780263
C        15.37367162925933    6.70884913087781   12.10894343056249
H        15.80584721515738    7.00305681051067   11.16426571581217
C        13.83719893667423    8.41596558845265   15.13774091814949
C        13.25065628546438    7.86419200499527   16.44001617529596
H        14.00617212778800    7.33566139672746   17.01675552017657
H        12.41855541741359    7.19370830153948   16.23841561867184
H        12.87926665741398    8.68706789591146   17.04782265952722
C        12.72531500824130    9.17282884742417   14.39714802872667
H        13.09242852582865    9.62838042825312   13.48192904262727
H        12.31756982460039    9.95737442111166   15.03145016577710
H        11.92266540819120    8.48824550121044   14.13195220941230
C        14.97737826001845    9.37902350341452   15.49606172434478
H        15.78596709993039    8.83919152723270   15.98427320500432
H        14.61728836700754   10.14991917058703   16.17434406349322
H        15.37838291641300    9.86586161002998   14.61173356834947
C        12.75954643850458    3.05152804050979    7.08897684506625
H        13.27009901752843    3.93823325386864    6.68618240178994
H        13.44672197345481    2.20563127990824    7.06679932578874
C        11.44469925153112    2.80036595037464    6.33480960743781
H        11.48131717282541    3.21690287813112    5.33035132004689
H        11.24786014550954    1.73229210590498    6.25655006930139
C        10.38803278690223    3.48848539678248    7.21676089734806
H         9.65814048273030    2.76710773132345    7.58082736751056
H         9.85704708683706    4.27769681584288    6.68840472640278
C        11.21132723819955    4.05724336293305    8.38283849612465
H        11.46567559440667    5.11054482145631    8.19489514425253
H        10.71477584547055    3.97836363750255    9.35014810477822

