54
CSD_code = VICDAO | q = 0 | S = 0 | Stoichiometry = C26H22N3PPdS | MND = 4
Pd        4.72695463997989    8.95636311183448   10.47647782187049
S         5.54805772283913   11.15809609037063   10.79952388974503
P         6.39998181631772    8.17660191219152    9.23288365050820
N         3.21075413115861   10.80336691356011   12.12616229005490
N         3.28788920649046    9.56166515480859   11.63440838634467
C         4.18617392964922   11.60067464826398   11.77427268945571
C         2.44056370704817    8.65690088501652   11.97474652683680
H         1.63215346855470    8.88516102027299   12.66742252188297
C         2.60556548808356    7.35450320820227   11.37784484543830
C         3.69646865057402    7.22227209759406   10.49261151922111
C         3.87646431920092    5.99632196437309    9.87388728051383
H         4.69415337369407    5.84602145391924    9.17563466662135
C         3.01562902902606    4.93192260022533   10.12302952761818
H         3.17871687681832    3.98647120835018    9.62462278386257
C         1.95689890004811    5.07405012151230   11.00260638784322
H         1.29556820378269    4.24159106144910   11.19528910154297
C         1.74558619330848    6.28758922497308   11.63157213833014
H         0.92001064885406    6.41305301676352   12.31833620291544
N         4.14144554375224   12.88471480953005   12.18790735544367
H         3.44487121241734   13.15710318315791   12.85896179010950
H         4.95174441904475   13.46148340503435   12.04890718378695
C         5.93420630839422    7.76424565527171    7.52591545758231
C         6.83491612406988    7.32610936941152    6.56121897546217
H         7.87929178386900    7.20303635880695    6.81351866569209
C         6.39208084662166    7.07393120409229    5.27525320150125
H         7.08742578549368    6.72499154580756    4.52564413013466
C         5.06169675332454    7.27758754330595    4.94349158346530
H         4.72308102985748    7.07963115672963    3.93719381867122
C         4.16959175904131    7.75027966301322    5.89312005363396
H         3.13864590758467    7.92840823170127    5.62551901106413
C         4.60483896022844    7.99645269203618    7.18223534118176
H         3.92208356021280    8.37812078347195    7.94874112178740
C         7.06845932736808    6.71459958639520   10.08344136277379
C         6.92513109400879    6.76973239990546   11.47010859860161
H         6.43174719168301    7.64416167854559   11.91858868592183
C         7.38625613987833    5.73364487047321   12.25847628941943
H         7.27690439821295    5.77630037813061   13.33199782982099
C         7.98078323931223    4.63033174878210   11.66432530170198
H         8.33547921308873    3.81481906585369   12.27703496377374
C         8.11174426124681    4.56633459208935   10.28727474558949
H         8.56621715539658    3.70022414638445    9.82854870367889
C         7.66019643702020    5.60691416651035    9.49266022149617
H         7.75313622601418    5.54775546960108    8.41813632882231
C         7.88285983739729    9.19009261061277    8.93112538602719
C         9.14455321421585    8.88371789577619    9.42399246592087
H         9.29552576862733    7.98595763443699   10.00761432217023
C        10.20564108462389    9.73597101476906    9.16871527963851
H        11.18713221703590    9.49796679138018    9.55276093387733
C        10.01199931312969   10.89090064880974    8.43061556195233
H        10.84296436577884   11.55380692570867    8.23893307750217
C         8.75072962843170   11.20356184050470    7.94570326784498
H         8.59797791479351   12.11029493497943    7.37919447679219
C         7.68905740366644   10.35822234327590    8.19695389589998
H         6.69259426974104   10.59736796201956    7.84333838063114

