41
CSD_code = VICHIZ | q = 0 | S = 0 | Stoichiometry = C16H16CdN4S4 | MND = 6
Cd       -1.30545426218313    3.52003050840970    2.53373289303326
S         1.08756825526626    3.63716730684368    1.61864251303289
C         0.25036956673308    4.65382880127244    0.56528626740759
N        -1.00919838659932    4.89958509710878    0.68810888618367
N        -0.98438347198686    1.54054265817498    3.87556985282438
S         1.05939694947231    5.43530098050239   -0.79475436659580
C        -1.53440208710364    5.86555641348952   -0.24585672007767
H        -1.68141310374948    6.81599261547343    0.28513166815872
H        -2.51085766953257    5.52803009361830   -0.60673447369444
C        -0.54806126175616    6.04717512285160   -1.41148876323027
H        -0.43848506912442    7.08592832147722   -1.71274335594778
H        -0.81922463001453    5.44569225495621   -2.28012440372799
C        -0.96036197893699    1.58719380522635    5.19739935519022
H        -0.67752425407819    2.53896033964281    5.63052438547270
C        -1.26930844561678    0.49788258199907    5.99771347877835
H        -1.23950171507817    0.58102578594140    7.07242136491282
C        -1.62680513803276   -0.69024788537943    5.38048406841453
H        -1.89272439094513   -1.55794845549086    5.96570849891578
C        -1.64073340141407   -0.74688006891149    3.99769655500033
H        -1.93362030925781   -1.65237043889594    3.48994897879509
C        -1.30616790383335    0.39577601991350    3.27167952650880
S        -3.69804402698826    3.64299171019646    3.44810692389468
C        -2.85901122202239    4.65858882112990    4.50106277579222
N        -1.59881969445420    4.90135508044334    4.37864893600619
N        -1.62820313170356    1.54059543196285    1.19158192061535
S        -3.66689420170195    5.44293825913790    5.86011955343859
C        -1.07189764384342    5.86693382596534    5.31205910488977
H        -0.92262218759551    6.81662648269195    4.78036921160235
H        -0.09632370261456    5.52758737146165    5.67361013966332
C        -2.05832728321570    6.05161980613401    6.47713395684374
H        -2.16568447886936    7.09083280826649    6.77759573908071
H        -1.78888843592260    5.45015621799212    7.34632086321926
C        -1.65264721739917    1.58844974321398   -0.13020555437596
H        -1.93971196103512    2.53941044793131   -0.56232499240678
C        -1.33910425132793    0.50130111158725   -0.93167299708119
H        -1.36938196881214    0.58542324636630   -2.00629347816124
C        -0.97637462652409   -0.68589967739164   -0.31571873957365
H        -0.70671614076595   -1.55182158619131   -0.90186641354128
C        -0.96209863984239   -0.74390835603554    1.06701066399601
H        -0.66528287768426   -1.64865834113855    1.57379592119363
C        -1.30147359990457    0.39655573805523    1.79422025555040

