76
CSD_code = VICJOH | q = 0 | S = 0 | Stoichiometry = C36H29ClCuF6N2P | MND = 4
Cu        1.09017938298212    2.00378855398718    6.99159455051384
P         3.14968172962205    2.58530276370908    6.17581324678891
Cl        0.67746324704489   -0.18373094153116    6.90928106653719
N        -0.52254503123316    2.92146380072879    6.04107701289482
N         0.58450714814600    3.17407004813936    8.55347552050551
F         3.44942792395084    0.59263925153177    0.78255368642886
F         1.96522766724958    1.28731571544011   -0.61169740988978
F         3.42646640666295    2.65256164866679    0.17179191672969
F         5.48118572144476    0.47264950162286   13.22525696799817
F         5.45587537282786   -0.93262696633673   11.59697263769153
F         6.72446654930213    0.79986360019411   11.50510784708349
C         2.63182719818674    1.61612602860329    0.51059884023083
C         1.71048401669200    1.96750408295160    1.64269835416612
C         0.89417847565250    3.08544190263137    1.50386005223196
H         0.92260653509405    3.66039606302488    0.59080350950632
C         0.05750847546738    3.44851692646397    2.53792592598293
H        -0.57341081629792    4.31896975102021    2.43610085284171
C         0.04516407381579    2.71525690813488    3.72629959376951
C         0.84332113292324    1.57556520237360    3.83823292898111
H         0.78202429451134    0.96786164613823    4.72973401809897
C         1.67078622972255    1.19949915614036    2.79787979637062
H         2.28753485453121    0.31877532778018    2.88683283861720
C        -0.79285991671123    3.16057545158354    4.82808506365145
H        -1.67651865871516    3.75157827130249    4.55459660406999
C        -1.36068608375115    3.37086129940037    7.10768513789602
H        -1.81154841495397    2.47968300039373    7.55674656548134
H        -2.15748948049073    4.04888693016798    6.76808466519921
C        -0.48950322040351    4.05555211832113    8.16658369545718
H        -0.08999471097912    4.99362918564831    7.75576107847624
H        -1.10484148105241    4.31064079124249    9.03688096818555
C         1.37966579644364    3.54250948646621    9.48803190682098
H         1.28023612243958    4.53675214129336    9.93781914936939
C         2.42161296935832    2.71498881656881   10.04989447799236
C         3.26193727209718    3.26240629826716   11.02657094098112
H         3.13592663239795    4.29312245593088   11.32334558948440
C         4.24880563995674    2.50083086398991   11.61312240042812
H         4.89591156240391    2.92417871778177   12.36628834468337
C         4.40517445619262    1.17065613182129   11.23653765304538
C         3.57845716280939    0.60831166684469   10.27090510916713
H         3.70075622502552   -0.42524760676792    9.98626100325056
C         2.59630345046445    1.37601184945337    9.68170631693959
H         1.94713156519888    0.93762110672038    8.93722724746947
C         5.49903366438249    0.37272974963025   11.88331378735827
C         2.96184849420230    3.87310235557705    4.89385401723469
C         3.58589312683781    3.85076767607362    3.65278465254858
H         4.25057428030514    3.04103371690275    3.39150778746025
C         3.35320511048267    4.86507480875347    2.74006439128188
H         3.84704648341744    4.83965119906705    1.78035881966303
C         2.49011618790758    5.90227984893239    3.04891148757745
H         2.31540469410848    6.69239768873922    2.33419805740252
C         1.84108976323792    5.91716113241297    4.27307026877389
H         1.15430073623435    6.71664315084597    4.51268022357593
C         2.06980163784577    4.90415503972770    5.18338795275996
H         1.54541003049813    4.88763999842560    6.12992222866026
C         4.23253021618397    1.34618276210506    5.40135762874872
C         5.52025282748355    1.66838553918021    4.97252995217843
H         5.90697617189505    2.66701100180896    5.12824807774203
C         6.30190480998789    0.70530252588621    4.36381210886290
H         7.29662868725062    0.95699493838592    4.02574089837994
C         5.81390969289185   -0.58133978604518    4.18927940649237
H         6.42907492844111   -1.32808855906297    3.70971459454037
C         4.54769949465066   -0.91038999066298    4.64159921905144
H         4.17461336481161   -1.91690477014982    4.52552254150202
C         3.75457992694623    0.04919460033650    5.24899756210866
H         2.77365329376144   -0.20766682071012    5.62692357320947
C         4.30801972119004    3.37108810819163    7.34831450183855
C         4.26080812490303    4.72771897096617    7.64998168508929
H         3.58010217658966    5.37819817116278    7.12014853983932
C         5.10583308096214    5.25654886778739    8.60954174506785
H         5.06794801277380    6.31361370769481    8.83068771285787
C         6.00221451731725    4.44046378844397    9.27751192956234
H         6.66618530961557    4.85753439999644   10.01951843843666
C         6.04821533947908    3.08570205723372    8.98836493294482
H         6.75023786375418    2.44728619985262    9.50267359637515
C         5.19752262009753    2.55076959901974    8.04115328535048
H         5.22492813339418    1.49209937586047    7.82369672344467

