62
CSD_code = VICJEW | q = 0 | S = 0 | Stoichiometry = C25H28N2O6W | MND = 6
W         2.98716761473095    0.46211118210845    2.33843112547201
C         4.39852657103246   -0.45915753960052    1.28058698324817
O         5.19824583996501   -1.00720039751735    0.67148709006023
C         1.80238623611466   -1.00599221511284    1.69151765899565
O         1.27678934871785   -1.91199954653409    1.22554725246005
C         2.50471301731284    1.51570802651333    0.71594755301443
O         2.28578134137250    2.06417742439607   -0.26417532208082
C         3.55820670365846   -0.63151884951852    3.91154604176529
O         3.97593782331558   -1.30123083491468    4.73829360811592
C         4.34304585043042    1.83747387818541    2.86165129333978
O         5.21132396698242    2.54681895394316    3.08267975433395
C         1.50819673858827    1.55286857689281    3.54140676232694
N         0.46192400578447    1.17738328044266    4.22526425087743
C        -0.38736104539592    2.06143931127593    5.01997657193440
C        -0.34992340729899    1.76434143923307    6.51637453480662
C        -0.02463193592411   -0.19116761026304    4.14694791552627
C        -1.06574702715737   -0.34515210146620    3.03979433075859
C         1.91706970265666    2.98057086489538    3.66358217027545
N         1.72795793393939    3.76214229407871    2.54496572194857
C         0.44678057788713    3.69288346659758    1.86962665166436
C        -0.55249551627672    4.75206884108449    2.34537475044778
C         2.51904985934093    4.96541153502354    2.35999842665240
C         2.68764042845974    5.33804441685995    0.89115236507243
C         2.59215866440945    3.31190201770998    4.80750343204349
O         3.04519060470083    4.59947564993356    5.06506994248718
C         4.20757345567530    4.69226162579965    5.85242468273955
C         2.89059650034295    2.28198003225561    5.71427798255045
C         3.18731008955362    1.42515293830132    6.52010861615589
C         3.45286374786352    0.39599467334263    7.44080835857536
C         2.71264659036027   -0.78953210098998    7.40089521966758
C         2.97723313462725   -1.79990902858862    8.30260287636231
C         3.97194825004306   -1.64500585640322    9.25568673783305
C         4.70509464350047   -0.46949385543918    9.30414429771506
C         4.45252772530796    0.54715270858848    8.40535250970749
H        -1.41439966734635    1.96832420349656    4.65236251301066
H        -0.04797165020057    3.08503680543252    4.85899505832282
H        -0.89282719474180    2.54341827634541    7.04508509788861
H        -0.81499031356920    0.81163658079445    6.75656554170357
H         0.67654816471652    1.75410808580949    6.87157319250502
H        -0.46299653620019   -0.46683607866972    5.10726341749617
H         0.82559411960547   -0.84785232371038    3.94822152358644
H        -1.34455891338098   -1.39015271613950    2.94061497136401
H        -1.96368472654195    0.22953674950505    3.25631170291540
H        -0.65382942558835   -0.00661678904114    2.09116560073169
H         0.03211195063310    2.69512850008288    2.03544601101787
H         0.60387653612483    3.80839969899913    0.79477039869721
H        -1.52234526999624    4.57376805667701    1.88784415270329
H        -0.66742031827837    4.72204209035253    3.42664013445512
H        -0.22075434737818    5.74848699433727    2.06617314245996
H         3.50753540860094    4.76561421740886    2.77273171958931
H         2.09199601869160    5.81336839081283    2.91285149841786
H         3.43649446225547    6.12215866459398    0.81175820529979
H         3.02838989664039    4.47997371964129    0.31795996708409
H         1.76414518957531    5.71044712279024    0.45543890927660
H         4.45075254986466    5.75243524236372    5.90243985990176
H         4.03652946456594    4.30665387621884    6.86323014889870
H         5.04164759488519    4.14435575098170    5.40215326670710
H         1.93745448100860   -0.90474665361089    6.65641333682082
H         2.40576321434200   -2.71610776921655    8.26328782938167
H         4.17628084002160   -2.43915223962715    9.95835009890097
H         5.48107398134414   -0.34773008588235   10.04611271409220
H         5.02535645572134    1.46309842820730    8.43568784004854

