99
CSD_code = VICKEA | q = 0 | S = 0 | Stoichiometry = C42H46N8O2Zn | MND = 5
Zn        7.13541396007659    8.99007967774931    0.30986443429903
O         7.29672178596389   10.13625058181611   -1.29589115036661
O         7.30026181833299   10.61940653373337    1.43148096168039
N         8.38040714790071   12.08734328515868   -1.93322349746390
N         9.62264207560649   12.64003946707414   -1.81443604644959
N         9.11312745797278    8.63385580332100    0.41536499724750
N         7.33296059880960    7.76405332880269    2.36101497151502
N         6.40590881115363   12.02403244229820    3.03896605676990
N         5.20112696174352   12.23939282254763    3.64289180432481
N         5.12461650241592    8.96823822225875    0.39251088226690
N         6.66147452097293    7.20277757709213   -1.28357519868515
C        10.34530056011226   11.83939121026617   -1.08227699983716
C         9.59267802824962   10.68511421309204   -0.69089932934181
C         8.31101337298303   10.88548135877194   -1.28024231895959
C         7.39161368673907   12.76442269117355   -2.64632399616919
C         6.05030004838462   12.40192604217827   -2.55699451321253
H         5.76037060837532   11.58345846876058   -1.91893423619598
C         5.10350894620876   13.09984261975277   -3.28367536388915
H         4.06337847656548   12.81442732780550   -3.21252977334205
C         5.47406005604463   14.15928941016270   -4.09467189131856
H         4.72776284860741   14.69810390588377   -4.65984629023248
C         6.80781370442562   14.52671208456809   -4.17199573068065
H         7.10424515453442   15.35605082151250   -4.79774691775549
C         7.76472018195590   13.83685319668699   -3.45455684495684
H         8.80628108655110   14.11135809298381   -3.49733368562787
C        11.75772246676335   12.20260510904539   -0.78762093528691
H        11.90828373102112   12.34187626732605    0.28128080908545
H        12.43832511507552   11.42248107594447   -1.12424122127151
H        11.98772316300474   13.13056228852828   -1.30462403131124
C         9.93735229603200    9.60994442610878    0.14832754353463
C        11.30205119315236    9.62580698777764    0.74567237613472
C        11.52050691560651   10.29938703745182    1.94294061809244
H        10.69940205920024   10.81664589631841    2.41892432253072
C        12.78115352609021   10.31244012898692    2.51280617483548
H        12.94352138938786   10.84052014719734    3.44116071320804
C        13.83099416746103    9.65428378717301    1.89379833418761
H        14.81545009313223    9.66821968658297    2.33767880605763
C        13.61655781152345    8.97882522797681    0.70425928013551
H        14.43402091804389    8.46566878512678    0.21888315343481
C        12.35579680657675    8.95948810341764    0.13338763245014
H        12.18585390007387    8.43662576115698   -0.79728287879134
C         9.56364206823931    7.59376463097131    1.31241244023842
H        10.18832524123166    8.00435856621253    2.11530741591767
H        10.18139915087878    6.87054723224857    0.76152901565497
C         8.37526225200040    6.84829863469988    1.91710273252307
H         7.93828481240940    6.20295744971578    1.15770324073622
H         8.73534793106812    6.21905491710626    2.74948934560706
C         6.15231094470006    7.02050642166341    2.76756099224914
H         5.37158908781117    7.72183935495924    3.05584195161442
H         5.78972600933197    6.41763341716293    1.93877151152396
H         6.36291124426926    6.35710111167650    3.61955408885033
C         7.79720006770357    8.55875325189628    3.49038040426413
H         6.97669236555834    9.16518134672883    3.86785194961082
H         8.16565624702237    7.91807305051837    4.30475033099810
H         8.58840071844637    9.23118096072904    3.17378153138939
C         4.32751418009929   11.45628085930378    3.07295642377546
C         4.94386264064489   10.64975174443747    2.06262515798651
C         6.31443996756203   11.04258214506229    2.08473747267592
C         7.53230001965736   12.73876856798158    3.44653180497283
C         8.67035471830451   12.81356674870663    2.64728248387617
H         8.68540237918301   12.32321722457501    1.68757759821530
C         9.77010320597391   13.52555204404694    3.09007352417853
H        10.64872900516929   13.58622744158369    2.46365367735837
C         9.74816860453880   14.16916492820406    4.31612074057352
H        10.61138918360277   14.72366740176914    4.65376503708844
C         8.60874567309282   14.10632838248465    5.10218296473281
H         8.58135848431023   14.61358183214012    6.05570868004058
C         7.50414035268565   13.39634885648429    4.67458261972259
H         6.60561396815691   13.34246295035063    5.26812901139833
C         2.91462436102537   11.47593879525843    3.53955172937399
H         2.57414852939739   10.47418736053171    3.79598833915182
H         2.85023127763598   12.11670912247553    4.41497107164472
H         2.25663878750306   11.86723839806275    2.76549952690269
C         4.38996129446195    9.70979156243399    1.17171945468988
C         2.90419516834086    9.60535482060027    1.12923716662057
C         2.16426465158808   10.55227185905011    0.43001288161287
H         2.67825647051072   11.36086911954248   -0.06951544948146
C         0.78495015264045   10.45767112590876    0.37748689834656
H         0.21620696001756   11.19619075176491   -0.16824007625865
C         0.13385365947892    9.42220079963038    1.02698171036287
H        -0.94311788972930    9.35242498580824    0.99028611824049
C         0.86619732709898    8.47648834686736    1.72441749490568
H         0.36103079470138    7.66871885231254    2.23375035617225
C         2.24643941368161    8.56258398322282    1.77024264462601
H         2.81862060220367    7.82512156820987    2.31634592730104
C         4.47204822527781    8.10052128733386   -0.56011468857394
H         3.55857596695637    8.55988399412668   -0.95873478236878
H         4.17758164858822    7.16449635071814   -0.06708309587306
C         5.41242277482391    7.81468121289839   -1.72656774839412
H         4.89694526902678    7.17792397889743   -2.46423165756233
H         5.66039056471337    8.76706063341829   -2.19213192226020
C         7.66411013311345    7.29416621447296   -2.33821920941274
H         8.60262065066471    6.87640145557444   -1.97895973690695
H         7.35180591774506    6.74772689297240   -3.23921731185560
H         7.82657227067824    8.33668672842934   -2.59055647767148
C         6.44685708225710    5.79411335466779   -0.98601462964561
H         7.39124612990601    5.32451600739937   -0.71507380110429
H         5.74797808655012    5.67589699635057   -0.16117149323257
H         6.04134924263593    5.25903006608578   -1.85831440774474

