96
CSD_code = VICKUO | q = 0 | S = 0 | Stoichiometry = C50H40AgNO2P2 | MND = 4
Ag        5.51073326233500    5.33104818078391    3.02211369115433
P         4.33249913152795    7.23422901273094    4.41143413143083
P         7.25592565591545    4.50778216875859    4.51991357624899
O         3.69185555896360    4.49265291731724    1.81035959531233
O         4.93353593387753    6.05129857049840    0.86567670238932
N         2.01389643655855    4.29633211401792   -0.28824381944845
C         3.97505289161780    7.42215741983595    6.19265191147330
C         5.03646712109466    7.72307803440599    7.04367720206065
H         6.01975660055940    7.90026905585948    6.62864905406781
C         4.83762063219579    7.80777454985764    8.40695328542742
H         5.66461899186503    8.05440708748248    9.05670562827860
C         3.58001060127302    7.57398620791847    8.94052742393001
H         3.42373468743554    7.64040494757622   10.00707085738189
C         2.52605376640786    7.25280996926262    8.10254372661191
H         1.54509185150998    7.06644731957222    8.51530755525029
C         2.71980484529427    7.17243753804526    6.73496096388560
H         1.89235337905208    6.92451201644684    6.08536552720420
C         5.15665395575619    8.81731395023399    4.03993372214499
C         4.94925141071241    9.98456274492872    4.77024893439833
H         4.26899915024821    9.98228694672479    5.61076859631335
C         5.61681997377982   11.14414398028245    4.41964592803423
H         5.45255073485431   12.04900294983215    4.98697380061515
C         6.49092521084912   11.14954035411439    3.34388614851090
H         7.01021318690560   12.05827639473875    3.07673910594214
C         6.69654454518121    9.99159046509056    2.61125278251550
H         7.37481925478159    9.99455501239615    1.77102691461394
C         6.03303130384680    8.82888444078933    2.95837968524731
H         6.18074718132568    7.91630248448872    2.38535618666118
C         2.68071456530190    7.45609173559985    3.67450938074686
C         2.19088049682282    8.67704545875915    3.22840523052558
H         2.79731719983347    9.56860257462222    3.30373013740603
C         0.92342714484482    8.74693888796565    2.67594514645063
H         0.54424331901218    9.69759048908642    2.32869972993987
C         0.14496418642601    7.60733094112239    2.56333082959540
H        -0.84209663433617    7.66596883107161    2.13021754839848
C         0.63667477252518    6.38455324498187    2.99263782882979
H         0.03867729431938    5.49232357575679    2.88226882212274
C         1.90107078234205    6.30794723128167    3.54372520656615
H         2.30345285627302    5.35293157798768    3.85738428524879
C         8.77692795720090    5.48345055387822    4.71656584547382
C        10.06292284660503    4.96890823059037    4.60597559642725
H        10.21167648273097    3.91190641086609    4.43583478458233
C        11.15328851766187    5.81611180845104    4.71120591500787
H        12.15230072251933    5.41327949658114    4.62954857282638
C        10.96935287604322    7.17323606787837    4.91504691590011
H        11.82453771445336    7.82761031954175    4.99540455383557
C         9.68664848852665    7.69435941881675    5.00318568898560
H         9.53865051923870    8.75489413732623    5.14580085167480
C         8.59692631505649    6.85455342171771    4.89647000219683
H         7.58803246075528    7.24860282284316    4.94304760117437
C         6.53139491845491    4.57911519013537    6.19133724061388
C         5.19119448769359    4.21641606364255    6.29537121311809
H         4.64892109453008    3.93770023306542    5.39542753485217
C         4.56391091646917    4.20992773693697    7.52599351442410
H         3.52400523630020    3.93007697979801    7.60198908888274
C         5.27130097979112    4.57033476194577    8.66160828101072
H         4.78263196172674    4.56904548698659    9.62430690910843
C         6.60251679541854    4.93804334742285    8.56218369960502
H         7.15215070203559    5.22129679298227    9.44811303586699
C         7.23578174557476    4.94501283629410    7.33194435360933
H         8.27254707770186    5.24389650002056    7.25721148356449
C         7.82289216429325    2.77703328829891    4.48187331663342
C         8.51103009528847    2.19597994599731    5.54370695881248
H         8.72982681366205    2.77959554346440    6.42726146179523
C         8.90559093900312    0.87378643083074    5.46368242897272
H         9.44192114684969    0.42264407214987    6.28581957149735
C         8.61145525801382    0.12477714974321    4.33414203476524
H         8.92094589122124   -0.90838166721993    4.27890113719870
C         7.91565279142084    0.69619552272248    3.28192298411857
H         7.67823392930025    0.10966305797256    2.40697777791250
C         7.51987630415356    2.01988492401432    3.35569398611827
H         6.96522052981263    2.47694469487907    2.54323449117400
C         3.96332195226351    5.26850671544400    0.87914039010466
C         3.05246254248169    5.27751998908916   -0.36659791904984
H         2.61800549999057    6.27449561840079   -0.45577213260576
H         3.68520984165693    5.10309844503829   -1.24509272459531
C         0.67083368930130    4.52934597245362   -0.14191908733828
C        -0.03894475795119    5.72216421324443   -0.19309325245199
H         0.45853082480808    6.66995690716730   -0.33897987286778
C        -1.41168388376085    5.66854131497476   -0.04984951442002
H        -1.98439677992493    6.58430866573657   -0.09473821033872
C        -2.07826285595019    4.46047998190833    0.14440095867690
H        -3.15318913902169    4.46154139161263    0.25341195505206
C        -1.38262574385772    3.26897017563861    0.19191812289541
H        -1.89919315115731    2.33134822914964    0.33616652382932
C        -0.00226579877134    3.29467687944406    0.04427356756558
C         1.00801057051618    2.27704539140048    0.02074695862112
C         0.98088775954304    0.89325495539719    0.13984908532295
H         0.04549980371514    0.37451109244685    0.29183017460771
C         2.17098006856245    0.19947091188272    0.05943328624308
H         2.17275854572387   -0.87727245468492    0.15144875503199
C         3.37854824450681    0.86746070111623   -0.13995963676424
H         4.29298562750915    0.29390540063963   -0.19892110061887
C         3.43144201915980    2.24105145685159   -0.26565214036857
H         4.37181794565760    2.74966027815826   -0.41418047604594
C         2.23880725638408    2.94644480399758   -0.17878550584316

