103
CSD_code = VICLOJ | q = 0 | S = 0 | Stoichiometry = C55H42AgNO2P2 | MND = 4
Ag        4.74771179823349   10.88490231202556    2.51142048120641
N         4.59043111296189   13.22212284257185   -5.51605010346396
O         3.60537304087426   11.36464323743802    0.49653733991235
O         5.79472265361637   11.62657154806197    0.53207015248501
P         4.87148088204703    8.43184253342396    3.13411985203700
P         4.60574450080106   12.36205087172388    4.54122101643589
C         4.68952567874348   11.66148359663297   -0.05599464382444
C         4.66350436483067   12.07486840089370   -1.49644178892677
C         5.85181078095116   12.31047898733489   -2.17769403086228
H         6.78434467151755   12.19678545441390   -1.64558946210756
C         5.83173100521582   12.69112337408067   -3.50428707058496
H         6.75178084018284   12.89161257915853   -4.03398987215866
C         4.61519797400940   12.83725654777179   -4.16576321933577
C         3.42293432985130   12.60094359110503   -3.48640479653420
H         2.48386868790371   12.70190796693350   -4.01108294122847
C         3.45082008899598   12.22354036918900   -2.15908847520893
H         2.53775310176957   12.03117887429501   -1.61605223374703
C         3.86442430925168   14.26924087617818   -6.04314896188357
C         3.05120950461324   15.19184909949809   -5.40002372758057
H         2.89929304454172   15.15285945586437   -4.33185274674078
C         2.45295921388508   16.17039959182278   -6.16977612578624
H         1.81350229576629   16.89938859049137   -5.69360228418560
C         2.65895266911306   16.24160273200897   -7.54620805429465
H         2.17060236374037   17.02062115074861   -8.11305261718357
C         3.48355617241613   15.33990974767203   -8.18823608889400
H         3.65458314696619   15.40389790105922   -9.25250341291922
C         4.09728648333066   14.34668576906274   -7.43618586454804
C         5.00672268344301   13.28298526947050   -7.75609455314103
C         5.58393386217510   12.84043596749666   -8.93917627040222
H         5.37632454533745   13.34528100177537   -9.87085274151949
C         6.41985034509919   11.74282489449493   -8.89743386472541
H         6.87997906486960   11.38346936316909   -9.80616119256171
C         6.67299092410654   11.07980510039762   -7.69812966542006
H         7.31975497608917   10.21449372503171   -7.69999457801083
C         6.11196975337652   11.50089280770257   -6.50820284847433
H         6.30012668303511   10.97250379800976   -5.58570652231555
C         5.28759618507040   12.61693695692759   -6.54024671164648
C         3.46140577800371    7.43592789908053    2.54324474207498
C         2.78506661390067    7.92423905500889    1.42845088163927
H         3.07591195677133    8.87919346043637    1.00380223110868
C         1.74183380972265    7.20246293886855    0.87809334884886
H         1.22049165754592    7.58524796748553    0.01340293318583
C         1.36424835686052    5.99380944398713    1.44008509957859
H         0.54866170508807    5.42921301002885    1.01256693536116
C         2.02722438695975    5.51142532093709    2.55712397253556
H         1.72719123664968    4.57258310371395    3.00013330853542
C         3.07443007791849    6.22581112241227    3.11014469658219
H         3.57719561757685    5.85015896943965    3.99066822637182
C         5.03344033564547    7.90069182095220    4.86521098125364
C         3.90860891386812    7.99356901073292    5.68303319895582
H         2.96965602726509    8.32120908323848    5.25526605640779
C         3.98995943669841    7.65836225583437    7.01948696068963
H         3.11064870765045    7.71539646997817    7.64403284165033
C         5.20033591463011    7.25165896346169    7.55923216932822
H         5.26304383259562    6.98401878983428    8.60354502498861
C         6.33024983963006    7.19903028836890    6.76103563553287
H         7.27748849986721    6.89728618707717    7.18432648335738
C         6.25270684629102    7.52818541123386    5.41957783550163
H         7.13669044407205    7.48925190440757    4.79809112362338
C         6.23901584051713    7.56351575415746    2.29393678410142
C         7.05382802418996    8.30524836280701    1.44551266342969
H         6.86960211183191    9.36796545238316    1.31938180423404
C         8.08609358258754    7.68746967824975    0.76109688312650
H         8.71580483126538    8.26602172829436    0.10178133809539
C         8.30780792751520    6.33011413178334    0.92113336368474
H         9.11340962678943    5.84697748032244    0.38789516467155
C         7.49441612964590    5.58726290015528    1.76351956439799
H         7.66655425834879    4.52747009331377    1.88441626520779
C         6.45988124294466    6.19743288289605    2.44692913492991
H         5.82438049487275    5.61716808925016    3.10072085100752
C         3.11063071200470   13.40634815730418    4.50752847582360
C         2.87069034733286   14.39793076878415    5.45488005143550
H         3.57671617114831   14.56024603010991    6.25700136958202
C         1.73003031776869   15.17297690944899    5.36494440427357
H         1.54383848824658   15.94217297446182    6.10046099800167
C         0.82777390861967   14.96887197523624    4.33184796292205
H        -0.06039127317027   15.57996378797224    4.26535013020781
C         1.06704673051922   13.98815415869019    3.38396966239898
H         0.36843315483548   13.83303089685836    2.57542895377436
C         2.20681723464142   13.20783916612510    3.46943957718164
H         2.40877781130733   12.44420680822299    2.72277530981033
C         4.58551879493840   11.64437636150628    6.21162269170201
C         3.42790180956330   11.52561169846157    6.97137339630913
H         2.49330462599153   11.91762826586122    6.59488239376452
C         3.47660964840740   10.91444284780975    8.21186717931703
H         2.57694539543010   10.83563253683305    8.80506914729873
C         4.67098505617497   10.40818465639992    8.69504626556343
H         4.70559993409088    9.93991529055058    9.66747991958702
C         5.82120015120315   10.49349477664095    7.92572277614181
H         6.75074762028363   10.08543866779386    8.29426378359750
C         5.77700676472846   11.09784382858309    6.68584971923265
H         6.66780026429745   11.16298304649519    6.07379301640797
C         5.89504225620223   13.64396603986793    4.68370955719186
C         6.29128802702780   14.21826843673213    5.88715816695036
H         5.87116865011120   13.87104869024977    6.82123253568900
C         7.24223716476289   15.22272036043681    5.88839092194086
H         7.54988473057870   15.66710162771363    6.82407305501865
C         7.79977864463344   15.65955639589358    4.69751807291938
H         8.54071092939250   16.44538057397069    4.70645326983560
C         7.41469506157544   15.08250961585410    3.49816876853759
H         7.85627183029181   15.41395442275128    2.57018450509287
C         6.46783638656423   14.07515717260480    3.49025039686928
H         6.17256484608664   13.60446713768283    2.55834368983248

