81
CSD_code = VICNON | q = 0 | S = 0 | Stoichiometry = C43H33ClCuNP2 | MND = 4
Cu       10.46893230191940    3.14032331703475   15.24320177147846
P         9.40969246374828    3.02438110668438   13.02773539456801
P         9.12333559131029    1.59892789305591   16.20863413568175
Cl       12.51515962872389    2.45841513044233   15.82957333252617
N        10.43026404694423    5.06175571542095   14.99939338218867
C         9.87837488969049    4.76108783083099   12.68319235164229
C        10.37963380221174    5.55945058572456   13.73827017456069
C        10.81285279102823    6.88409307594247   13.45541011218312
C        10.72860184939917    7.37140762352605   12.13727986505389
H        11.07153686301416    8.37548486136390   11.93384249695602
C        10.23627677543888    6.58048596522102   11.13314044681786
H        10.17895186791000    6.95533085931890   10.12191974341843
C         9.82082044170432    5.27474964717945   11.40475937905522
H         9.45239240780851    4.65476877134619   10.59955195074924
C        11.32632686061170    7.65491983201326   14.51992328474605
H        11.66805398947872    8.66115449184704   14.32605214153921
C        11.37708632584852    7.11178645205988   15.77794489754095
H        11.76147190354102    7.66999497665846   16.61667963139485
C        10.90287508472714    5.81310870397947   15.97401287312893
H        10.90564589411129    5.36828518572864   16.95944855694104
C        10.54254903151529    2.23640855835076   11.83061398080908
C        11.82253522229231    1.94921231463713   12.29914479917725
H        12.07925706993577    2.16440981977167   13.32978447953891
C        12.75730885815967    1.37720542847474   11.45681786244785
H        13.74622572442543    1.15580242135907   11.82912513650482
C        12.42054754522292    1.08419683132199   10.14511742864496
H        13.14861557205196    0.63419274756027    9.48599718842197
C        11.14647365043439    1.36400331948571    9.67862161340346
H        10.88158033920733    1.13365530170575    8.65637439166927
C        10.20587991765897    1.93967479303759   10.51405408505620
H         9.21124569243439    2.14639444946285   10.14319631606383
C         7.79036895046653    2.88061245012139   12.20931537108870
C         6.93405883800352    3.95979780186441   12.02214936342057
H         7.26430824598595    4.95917469166703   12.26877616593446
C         5.66318145357102    3.75485394595385   11.51693506077440
H         5.00773294039943    4.59947128537220   11.36071570202439
C         5.22813886519676    2.47579400249257   11.21434863364751
H         4.23582567913171    2.32170529947054   10.81679963278659
C         6.06373406999855    1.39190986287710   11.43436713381803
H         5.72253943734793    0.39074265062250   11.21451450512751
C         7.33240252065479    1.59113017266588   11.93993926823662
H         7.98586256952319    0.74749631763482   12.12381514786640
C         7.44548615587270    1.33623299668731   15.55214613453142
C         6.63614764285560    2.47727320668319   15.29648359147885
C         7.07944915753458    3.78732346427788   15.56273574852426
H         8.07219212382545    3.92636927067902   15.97753050272907
C         6.27938344261116    4.86615222446386   15.30895894940875
H         6.63580001450577    5.86590143913572   15.51148232768739
C         4.98965841029030    4.68383717245286   14.78882210985527
H         4.36577108618273    5.54553009772049   14.60104419692394
C         4.53019573695246    3.42588775276857   14.51769833668125
H         3.53923514515162    3.27701201781055   14.11300294516718
C         5.33613053211435    2.29379859205852   14.75673025680274
C         4.88616814099437    0.98752723345507   14.47537346562332
H         3.89452089903361    0.85730371887521   14.06622925888349
C         5.68933993163925   -0.09221896832724   14.71557755378082
H         5.34149523316222   -1.09171358712756   14.49791982191518
C         6.97162980537462    0.08063943147107   15.25204466998465
H         7.58845646581810   -0.78797346513867   15.43629920764643
C         8.89175168317959    1.71384757824300   18.00228047735257
C         7.65986521948603    1.64225034484610   18.64175378972473
H         6.76064342625431    1.46603430156380   18.06763993329061
C         7.59584659318270    1.79275657102066   20.01618961732889
H         6.64023425633530    1.73271077433912   20.51718464241293
C         8.74906889182079    2.01715588839488   20.75021975462847
H         8.69036204317019    2.13072003871831   21.82290398153669
C         9.97741393315189    2.10261621841301   20.11100307165379
H        10.87480619186184    2.28481428480896   20.68393404275628
C        10.05038959509518    1.96133916014744   18.73908435404996
H        10.99702017767039    2.03672755393944   18.21720198078030
C         9.90690550141550   -0.02006734349763   15.97662213377726
C        10.27835951471362   -0.32390534736486   14.66811337307812
H        10.03985779520887    0.37969698342329   13.87780963995006
C        10.95324304245306   -1.49395504476033   14.38790626198262
H        11.24712602113759   -1.71773965871709   13.37248941150556
C        11.26752696873722   -2.36942678343707   15.41643564328179
H        11.80500639458559   -3.28174164068899   15.20299479473843
C        10.90398408778986   -2.06976207067491   16.71837413039793
H        11.15577136323702   -2.75028137455672   17.51893369218679
C        10.22759270972212   -0.89664769608981   17.00552934496526
H         9.95610669339034   -0.66108182791318   18.02492766188862

