49
CSD_code = VICPII | q = 0 | S = 0 | Stoichiometry = C18H20N6O2PdS2 | MND = 4
Pd       14.10697206347488   11.39441403907997   -1.55524886805480
S        15.82556310800066   12.18258716532754   -2.90363569946489
S        12.54403738229771   10.67827097481202   -3.11618631908843
O         9.01995360060572   12.67039588993110    1.27342544363041
O        18.86279784725666    9.98775653301630    1.73524099864288
N        15.15411255355264   12.48697170596800   -0.14926577976179
C        16.87809915991574   12.45947763543456   -1.55744799229061
N        18.20778211760448   12.54195724457273   -1.83083423888582
H        18.78011137919079   13.00525965453507   -1.14275911231236
H        18.45228822787493   12.68464636401336   -2.79767898232542
N        11.61805881354059   10.11291183295929   -0.65059005325147
N        12.91493282063563   10.24399405661769   -0.32244506334308
N        10.06014930122329   10.28650999715207   -2.32254993966038
H         9.41327343574440    9.80013929581272   -1.72231073664582
H         9.91718880208182   10.19807502710445   -3.31564712980415
N        16.47836797673293   12.63210474990844   -0.32950942428654
C        14.59347422178250   13.00522235038376    0.88575257518899
H        15.20177000038310   13.46059588051860    1.66405032400382
C        13.14776049289581   12.99789979797418    0.99129996735058
C        12.36581625590211   13.20172384142442   -0.15680444716665
H        12.83517986434155   13.52514857006022   -1.09869424660126
C        10.98479396256126   13.12129142495608   -0.09399086140666
H        10.41068354466131   13.29055170645276   -0.99124972573085
C        10.35799924873698   12.81700145122872    1.11152341317546
C         8.19204201745118   12.76119321538746    0.13757861254459
H         8.20191383228970   13.77150060279076   -0.28407160651162
H         7.18732557153523   12.52832825196165    0.48697894600007
H         8.48956734630166   12.04248853355549   -0.63185903769782
C        11.13252608178232   12.67068504581756    2.26730637607703
H        10.62669525906347   12.46575111915241    3.19751330951074
C        12.50227960804375   12.77273667691797    2.20953183275824
H        13.09382658197846   12.64100045217045    3.10328819318364
C        11.35271131658801   10.34577858714055   -1.90489654393706
C        13.36193582361708    9.68395936390638    0.74570849188301
H        12.67492572007272    9.20137164062632    1.43718595445351
C        14.78836749898604    9.68248761416826    1.00426145763655
C        15.68821266023802    9.52283513328259   -0.06172534009517
H        15.32200651811330    9.23877303859213   -1.06030120650920
C        17.05467887739566    9.59676873654072    0.15026288151091
H        17.72087268972047    9.46145327043879   -0.68715119487620
C        17.54975301052027    9.85074205120993    1.42673791604741
C        19.80499792604198    9.95829035305075    0.68853299569092
H        19.85294030062268    8.96927509718267    0.22146432368126
H        20.76512105969836   10.18311246752751    1.15053888051646
H        19.57824000405120   10.71038314827485   -0.07304770824615
C        16.65667574792142    9.95243914802763    2.49871835436746
H        17.06081848134092   10.11853131085974    3.48474022258271
C        15.30086231733999    9.85702144586923    2.29201750743147
H        14.61783756845697    9.95598650647793    3.12254228008202

