66
CSD_code = VICPUS | q = 0 | S = 0 | Stoichiometry = C26H33Cl2PRuSe3 | MND = 6
Ru        3.51363368569663    2.30889272748954    2.49638336270244
Se        2.39274570899183    3.39775735239681    4.25336420311731
Se        1.48772679705132    1.34496435370710    1.68543579786107
Se        3.95709782547799    0.32540034801983    3.75950134190989
Cl        4.80476656092409    1.02775715941488    0.92924561377598
Cl        5.43999821540192    3.28145149406753    3.55129639381846
P         3.61847051136166    4.00995923745954    0.93674170692734
C         2.17487468298149    3.88518469219703   -0.16131608601448
C         1.10192802593199    4.76612841693205   -0.14318845834117
C        -0.01351775900518    4.51035552313562   -0.92476823750213
C        -0.06771494917890    3.37814395859793   -1.71912590703364
C         0.99302955312639    2.48393622435757   -1.72700631739546
C         2.10455718396425    2.72771778418926   -0.94192901123059
C         5.01431277415453    4.00329787286593   -0.23344951211679
C         4.84352418019139    4.19907566377684   -1.60036676267773
C         5.94713304702830    4.23119477081230   -2.43382663144228
C         7.22083414104153    4.07187267149938   -1.91502502470142
C         7.39328717904442    3.88560269507021   -0.55346899447732
C         6.29647885874721    3.85622709139906    0.28670180674780
C         3.65521250828329    5.77177714634208    1.40920667316247
C         3.61999073351721    6.74230523907565    0.40952995026158
C         3.66738906599308    8.08161147301999    0.74359173117606
C         3.76208902158024    8.46544215103564    2.07301762168816
C         3.81252667118307    7.50497595689664    3.06850587187826
C         3.75974078036917    6.16187232886456    2.73734539146296
C         0.85270968271315    4.35217685639166    3.51861199853877
C         1.40782852919528    2.02447897240885    5.28958949950153
C         1.07449388542775    0.66759863276597    4.65349485795410
C         0.41732115881819    0.80187500172859    3.27325440734457
C         1.86838589346259   -0.41886519858128    0.98411088779548
C         4.96032181144523    0.74058724683676    5.36530214363630
C         2.27809291901566   -0.28370916114697    4.63520602281840
C         0.02073142297040    0.01265004295259    5.56925923395126
H         1.14131613394161    5.65528037951364    0.47137918333335
H        -0.84508610196967    5.20054049423449   -0.91033860326258
H        -0.93946225299500    3.18711173471952   -2.32765821516743
H         0.95033033338795    1.59839155973163   -2.34464132658365
H         2.94932552733165    2.04502826489178   -0.93564533915246
H         3.85329178306183    4.31327463700043   -2.02030322238545
H         5.80853845825796    4.37720719769676   -3.49594254418932
H         8.07755596547251    4.08916814416467   -2.57327002904846
H         8.38473290521131    3.75695039892803   -0.14462865616423
H         6.42686740784028    3.69841134412073    1.34830249225384
H         3.55678556576173    6.44061274648115   -0.62685678985639
H         3.63591326022515    8.83073001816559   -0.03449525563659
H         3.80451447732871    9.51377160541186    2.32981552093827
H         3.89904460445391    7.79869399248955    4.10415447685111
H         3.83026460332663    5.40941429187479    3.51955607797923
H         1.23524263204508    5.30049640011807    3.14170974580835
H         0.42128306879567    3.77923204784944    2.69352920652936
H         0.11868053266612    4.53236469453786    4.30215688599951
H         0.48709274290987    2.52401532903203    5.60202093972955
H         2.02415863218821    1.86050008891888    6.18004579271142
H        -0.02722059821898   -0.15532524299842    2.98392537382764
H        -0.38460561248124    1.54546978539461    3.33099736493248
H         0.93214551413200   -0.95548392136003    0.82788850681077
H         2.38427630265886   -0.25502623967016    0.03927857869048
H         2.53821075650832   -0.94928430304200    1.66454514315925
H         4.53742973645490    1.61675271815260    5.85886431852095
H         5.97172175137252    0.97234728635951    5.03178788956369
H         4.96474329766901   -0.13365834820919    6.01626319469043
H         2.56064388339119   -0.53983295099421    5.65880268585435
H         1.99424212041041   -1.20580353507599    4.11765779385950
H         0.37910853464690   -0.02546978131772    6.59578979762270
H        -0.19091795773587   -1.00342951958070    5.24297844326831
H        -0.90846831494462    0.57855195700211    5.55110499292257

