41
CSD_code = VICPOO | q = 0 | S = 0 | Stoichiometry = C16H14Cl2N6PdS2 | MND = 4
Pd        5.43680380647532    3.12455348562277    6.92567422037371
N         6.48040765578611    2.06678992081077    8.34398788779752
C         2.68949815665034    4.18633596774928    6.75273501514974
N         7.79788518787409    1.93077785173439    8.16708752950485
C         3.77691349449264    1.92463426473141   10.64916930211535
H         4.34329107385895    2.11619008808093   11.54833830097792
C         8.18478426352432    2.05168411161192    6.92181481010957
N         9.49969265188779    1.98513100440247    6.63839784664838
H        10.13803997665486    1.72004797371553    7.36887358023703
H         9.77446513740320    1.86695179913114    5.67868626583051
C         7.15393308351558    5.07820732613538    8.07027354810615
H         6.66546267346328    5.34058968864981    7.12024272946695
C         8.53537391371048    4.99533358354009    8.11429420002911
H         9.11901600061057    5.09487997242074    7.21191523096068
C         8.44168098393182    4.69841546371349   10.50880683604977
H         8.95296726176021    4.55061086614418   11.44698963642107
C         2.40019628370106    2.02935852393796   10.66741643005203
H         1.88206320209994    2.29560394510226   11.57522293786923
C         1.68336049252775    1.80280271513220    9.50135212836096
S         3.78532306967504    3.84658796771466    5.45323458004078
S         7.10259409895001    2.21630824932258    5.57785456736780
C         7.06520186314620    4.80004460129993   10.46726330996064
H         6.49206706236127    4.72501835068722   11.37932073835648
Cl       10.88324047916346    4.61140528917787    9.37375520599842
C         9.16718110254687    4.77343776902055    9.32860468418429
N         4.37960653451293    4.35796126066154    8.18126149346532
N         3.06402981233798    4.46952901907921    7.97520342637216
C         4.94679503539252    4.95565086227599    9.17033156337452
H         4.35109619033605    5.47548312413317    9.91618243508317
C         6.39846677519670    4.95125373923999    9.25190551787548
N         1.37780582743030    4.21583760968332    6.44910405355500
H         0.73210007879987    4.57391483036702    7.13187123238202
H         1.11322828327949    4.20692742231400    5.47935573436026
C         2.32405329608710    1.42703760882915    8.33032149526571
H         1.74696721296729    1.21159337337430    7.44410816157715
C         4.45260351360019    1.61919624374599    9.46811522122745
Cl       -0.03294167354550    1.96866309925722    9.51258083592952
C         3.70568989884567    1.34005764007573    8.30741555316006
H         4.20106037128572    0.95764254223984    7.40271753601036
C         5.90460384736058    1.60578435727542    9.39913736907722
H         6.49419202038467    1.19166648790609   10.21297684937303

