42
CSD_code = VICQAZ | q = 0 | S = 0 | Stoichiometry = C10H24Cl2ORuSSe3 | MND = 6
Ru        4.77290004334596    3.10755098584546   -5.07188811435697
Se        6.42298518354849    4.20278632739987   -6.40674816894938
Se        4.60182708346579    4.94790505510670   -3.57603755021238
Se        2.91811854100740    3.81853495678507   -6.38147160394424
Cl        6.65482881054776    2.25881096213493   -3.89298832384018
Cl        4.78972467653024    1.29413896784230   -6.60575226497112
S         3.59294686480070    1.68326542770082   -3.77699696155630
O         2.15507495541037    1.66382646961841   -4.01162085141103
C         6.19219664610934    3.64072904263371   -8.24708061996806
C         5.86653524162264    6.10536552398087   -6.61076734993936
C         4.43482440980120    6.50499891863328   -6.22458918009971
C         4.22583496364794    6.55217282256216   -4.70274903830450
C         6.40349757750031    5.41087991426561   -3.01004955774165
C         3.36746123045419    5.68011330760007   -6.96500219468455
C         1.41888708439262    4.29153887027057   -5.23686254146472
C         4.25609264049177    7.95778180791526   -6.71367006687528
C         3.82221974313854    2.01381145930134   -1.99715243571547
C         4.15351584032421   -0.03701335589681   -3.76201290795029
H         5.13100482703392    3.61971270844044   -8.49635799275327
H         6.75706944665144    4.30234286749651   -8.90225973687856
H         6.58509360146732    2.62608746741399   -8.29508571075914
H         6.57131768486444    6.68364741726034   -6.00633555250900
H         6.04152592925125    6.34452250519893   -7.66161809215000
H         3.18075576482135    6.79989222889928   -4.49785282445259
H         4.85320799638098    7.33858034725940   -4.27419683997759
H         6.70123089591626    4.62825942539751   -2.31360683828860
H         7.07302901720516    5.38588202032763   -3.87154007780925
H         6.39941877612199    6.38355919456438   -2.51974877549811
H         3.66680560664387    5.58191962986110   -8.01248377661716
H         2.41302858647157    6.21097344267704   -6.93412306392809
H         1.76579734242604    4.86572163596885   -4.37657209189680
H         0.68499759286668    4.84862062176243   -5.81622508184168
H         0.99938210775989    3.34728645914322   -4.89538760446011
H         5.04627884740347    8.59365777393240   -6.32163667770945
H         4.29065895461802    7.99972890926265   -7.79950555088347
H         3.29991160291163    8.35865744591916   -6.38616135215634
H         3.31041327263114    1.24868643189080   -1.42580042460366
H         4.89201593598866    2.00813112998064   -1.81014250837130
H         3.39755372749135    2.99232136642358   -1.77762243310961
H         3.57385604201835   -0.57039740404583   -3.01802824905171
H         3.98167369198601   -0.44845971207756   -4.75152890174601
H         5.21390121292051   -0.03313137666071   -3.53304011055808

