94
CSD_code = VICROR | q = 1 | S = 0 | Stoichiometry = C48H34CuF6N2OP2(1+) | MND = 4
C        11.15002003915953    6.89277702547928    3.37939781893310
C        11.79662329700824    6.32522897031905    2.29711568677307
C        12.07584970842464    7.14437428354330    1.20555193057623
C        12.80388470167148    6.57515991733752    0.01073708748803
C        11.70198397380829    8.47786163632244    1.23052962192151
C        11.05242847241215    8.96084133609591    2.36515030520225
C        10.55574441713594   10.33487755572070    2.47542208163775
C        11.09342822061284   11.41151526140559    1.77482106690958
C        10.52434700638112   12.66252150001970    1.96348664659060
C        11.12758421012981   13.84669285848485    1.24852173855388
C         9.43398103031046   12.81065970629106    2.81379940034883
C         8.98019571800312   11.68417079239759    3.47758664361204
C        11.86810821372102    9.81734871704536    7.34879592135408
C        12.44169323393839    8.58848107058054    7.04076213532611
C        13.65781039758698    8.23015975571501    7.59412646581525
C        14.30710288880079    9.10257224412257    8.45230062561687
C        13.74520022415311   10.33478969068582    8.75123044975371
C        12.52979899298032   10.69775653029995    8.20125639060829
C         9.11340455486093   10.20977435222679    7.99592371484577
C         9.45096927264474   10.04767798793992    9.33104453843884
C         8.45230852650283    9.94145898170247   10.28446247285937
C         7.12082039932395    9.97050358443598    9.90704903284640
C         6.76441058015087   10.11306907869620    8.57535550715899
C         7.76224670745188   10.23679638524881    7.62597982110974
C         6.32607186856213   10.14051289398831    5.70961523730291
C         5.29593934396060   11.06229930344468    5.76391143659718
C         4.11584756682472   10.79091193318772    5.08734413908813
C         3.97642708309539    9.62207776137659    4.35704538873880
C         5.01077311392818    8.70228966510772    4.29673105325785
C         6.18983834159328    8.95271471569956    4.98427536366670
C        10.48983154303633   11.98249455826134    6.19605625872421
C        11.58015075781301   12.30031518786985    5.38692218156491
C        11.78889995783935   13.60393347487569    4.98150019893051
C        10.90065238672158   14.59728555229216    5.36749808346959
C         9.60182355858455   12.97948761534639    6.58011275094497
C         9.81253577671518   14.28362348022073    6.16517962206616
C         7.48370645666918    7.21441380205966    6.74091092347362
C         6.24117768793076    6.91436755493881    7.29318438931443
C         6.16268128151429    6.46787541163272    8.59930676080416
C         7.31340164513188    6.32580182202158    9.35928011755374
C         8.55082178153398    6.62280741214989    8.81224127581487
C         8.63579174157663    7.06596894808476    7.50561467873074
C         7.22543796220978    6.50942780946442    3.94143938685454
C         6.86724571218011    5.23530748964107    4.36380348147742
C         6.61128614741610    4.25168720268054    3.42334784850298
C         6.72173014900221    4.53036838134356    2.07090213867392
C         7.09705724922854    5.79695050444777    1.64747116495079
C         7.35751882464704    6.78179379302293    2.57989592734316
F        12.41183903096860    5.32607377374475   -0.26119947939833
F        12.61253622912859    7.30277395812668   -1.09321603999380
F        14.12674416115971    6.53204033934836    0.22927109594920
F        11.11826632553456   13.68060541171096   -0.08009592992234
F        12.41059006639037   14.01924606656232    1.60670604160661
F        10.49156927625432   14.98862524754881    1.51343085064551
Cu        9.58550122766085    9.02896179183760    4.77410396926988
P        10.26673090158856   10.22221938735508    6.59143335813153
O         7.56846879719391   10.36630852431939    6.27649414804567
P         7.65659703524693    7.87555030615055    5.05566732503063
N         9.53047938429702   10.49172247341110    3.32196125121713
N        10.79738768621623    8.16909108727693    3.41569367899562
H        10.90376131038606    6.30363531868420    4.25187411444314
H        12.07385108527781    5.28375386902798    2.29476876759629
H        11.88565083770744    9.11327466316042    0.37911756353749
H        11.94389261709246   11.29244110005215    1.12269604223381
H         8.96459989573513   13.76984537910013    2.95564471188124
H         8.14160294809205   11.73328976052902    4.15656032162230
H        11.92788255833509    7.92448074814658    6.35515294288235
H        14.10167212120974    7.27548405354295    7.35477194669301
H        15.25657019975925    8.82591121637732    8.88414076410122
H        14.25850910873191   11.01513680748839    9.41376584810675
H        12.09358745687437   11.66222851984566    8.42284092557330
H        10.48961481678109    9.99749657909857    9.62172202780223
H         8.71505128454786    9.82537308877434   11.32405913008514
H         6.34646086660353    9.87557147248202   10.65207212376951
H         5.72569103284284   10.11329802725348    8.28071782758469
H         5.41752373083711   11.97831635186436    6.32304776411626
H         3.30476692097816   11.50099974627615    5.12876924569226
H         3.05525820526784    9.42464935561654    3.83106429459417
H         4.90367716011908    7.79209397132692    3.72440725891699
H        12.26588431223867   11.51561125736464    5.09021915446022
H        12.64201891705646   13.84929187506360    4.36680444778589
H        11.06156147095330   15.61551079500914    5.04863314460497
H         8.75895093564666   12.73919948821253    7.21215729916865
H         9.12754019595289   15.06004423904951    6.47136103208543
H         5.34403610648771    7.03378865386239    6.70074052997639
H         5.20021981348112    6.23276074913646    9.02795331324849
H         7.24406746512195    5.98335996719574   10.38015543461007
H         9.44674410806355    6.51432630113857    9.40429627540637
H         9.59587877095874    7.31553999493267    7.06723274746633
H         6.78689716325711    5.01590773886515    5.41893887640215
H         6.32510843061505    3.26289475241258    3.74825973304416
H         6.52016929958199    3.75899863538843    1.34381499660745
H         7.18863655900720    6.01007773838940    0.59297085868095
H         7.65905944768570    7.77630392263831    2.27002135338356

