95
CSD_code = VICRAD | q = 1 | S = 0 | Stoichiometry = C49H40CuN2OP2(1+) | MND = 4
Cu        0.41660697647078    5.46468899265549    9.60198901608140
P         0.71573144668815    7.25661058045016   10.96088838827962
C         1.15824833345031    8.77830052428764   10.08027613342048
C         0.55230799264088   10.02147542216396   10.17844649841881
C         0.99352485563630   11.04766761107174    9.36062097137454
C         2.02750951067914   10.84793380159568    8.45953709871652
C         2.65131861603296    9.61125574790822    8.33484795420225
C         2.18563974618255    8.58886469716687    9.15203803639545
O         2.66945156366073    7.31276044495625    9.09971291907681
C         3.27916943564813    6.94729423067022    7.93200680665331
C         3.82920408923587    7.86888208005190    7.04847349585528
C         3.85099564214528    9.33697790418019    7.44323273893590
C         5.11649394901259    9.56797770300167    8.29478418246940
C         3.88652035151074   10.25979468846317    6.22482877809748
C         4.39706622603796    7.36444479755741    5.88425713715981
C         4.41327684052999    6.00442250813399    5.61970969829532
C         3.85955975307038    5.10077063122764    6.50896726738302
C         3.28521272553182    5.57342822467423    7.67954305091829
P         2.42209398726438    4.58057273885390    8.93104786655392
C         3.67870856810206    4.35135281110652   10.22515508533021
C         4.78935588361075    5.17360390820278   10.36752024999336
C         5.67591234180439    4.96056640363583   11.40823093247248
C         5.46291175908121    3.93191512149289   12.30955999789047
C         4.35006680456082    3.11599892029137   12.17857343549930
C         3.45598614709401    3.33136825113785   11.14885444051622
C         2.34057617588754    2.94794686970735    8.12931670981254
C         3.33172084149096    1.97713991507988    8.22410601370799
C         3.16609282378873    0.76286002584662    7.58166715306696
C         2.01866480207920    0.50953590425072    6.84693092919503
C         1.03204574714022    1.47738268165594    6.74341944101737
C         1.19303447371610    2.69168746219048    7.38311283685746
C         2.08759352350556    7.04811698066050   12.13572580769972
C         3.14426057137998    7.93822973835327   12.27760546694744
C         4.13440384013210    7.68214951472020   13.21001914175137
C         4.07204539230373    6.54937425599252   14.00349645447559
C         3.01995647046773    5.65823571404466   13.86203626275420
C         2.03621121241190    5.90188348572189   12.92459041532754
C        -0.63710331542210    7.80625619235958   12.04492138614659
C        -0.42343193407213    8.60783998502116   13.16215516034292
C        -1.49851802009573    9.00312381281563   13.93659025038236
C        -2.78337033631211    8.60121911292005   13.60448042530813
C        -2.99795380491822    7.79676973832202   12.49698075955764
C        -1.92600991595263    7.39653616202369   11.72019059575029
N        -1.00361731332791    6.03275537435942    8.21196708744375
C        -1.08933967385374    7.21824103167858    7.62989884549724
C        -2.24207480489533    7.66192542407944    7.00684519222927
C        -3.35407548476352    6.82941574424518    7.00498864503499
C        -3.26797524406798    5.59063576864244    7.61520583027729
C        -2.06523872436724    5.21653847665598    8.21135294082950
C        -1.86495705225000    3.93534391004081    8.89701619707948
C        -2.60280838996102    2.78974901076488    8.60754295671734
C        -2.31914043807806    1.62023480220152    9.28977223385437
C        -1.31181794504099    1.62588460482909   10.24592706648600
C        -0.62498063891871    2.80481710863753   10.47047158545854
N        -0.88918720037104    3.92526030999536    9.81552171178207
H        -0.25154470800947   10.17973498070734   10.88160414778432
H         0.53295252717966   12.02094516035938    9.43013237057538
H         2.34910617541630   11.67734565829212    7.85177368463162
H         6.00587830588505    9.34524293967352    7.70986184794748
H         5.16201483107732   10.60395550936488    8.62271346584078
H         5.11252096681255    8.92734816123688    9.17528574586993
H         4.77534747808133   10.07122900962431    5.63046034527316
H         3.92936068213726   11.29917120746040    6.53610203318922
H         3.00709124444445   10.11274756358556    5.60173233612784
H         4.84192439158203    8.03453555618526    5.16749412355003
H         4.86671017312695    5.64730035694076    4.70812120804437
H         3.86676949839803    4.04214278397386    6.29734765261935
H         4.97198271750313    5.96858164744102    9.65992625012392
H         6.54201768803249    5.59706379232569   11.51081261440667
H         6.16345208883846    3.76407443228008   13.11310175354402
H         4.18251260484831    2.31204803064069   12.87982364360553
H         2.58604843925292    2.69667760032028   11.03666557592708
H         4.22827333567005    2.17260647711240    8.79498578392975
H         3.93724223865396    0.01062595954925    7.65318360699363
H         1.89491848579570   -0.44163772252860    6.35215832783152
H         0.14026479393280    1.28325194818967    6.16582708944397
H         0.43413647082214    3.46152196270405    7.30768287972010
H         3.19029926008595    8.83154196718136   11.67044229068621
H         4.95430115577525    8.37591412912221   13.32329179903330
H         4.84338960680080    6.36085132110684   14.73439859648549
H         2.97150454849569    4.77567783462810   14.48180386571966
H         1.20972380083977    5.21354475519944   12.79423777004360
H         0.58085972229306    8.91532019859554   13.41904792249683
H        -1.33566709759810    9.62641466154448   14.80298202527605
H        -3.61830262627091    8.91267404155305   14.21343818201129
H        -3.99890001417761    7.48003885968711   12.24381556685513
H        -2.07331105001661    6.75876196359652   10.85661202097162
H        -0.19744991183371    7.82993222347045    7.66459680069403
H        -2.27001527704405    8.63128402954711    6.53700028966099
H        -4.27461049693565    7.14430693403446    6.53829512735497
H        -4.12344849642856    4.93565990597092    7.64931298777483
H        -3.36626179864110    2.80880888266199    7.84668240486956
H        -2.87245409500311    0.71804650273267    9.07993878297304
H        -1.06882758863609    0.73640522015318   10.80364457760054
H         0.16291074547571    2.86638569097610   11.20880481979521

