102
CSD_code = VICROO | q = 0 | S = 0 | Stoichiometry = C52H39BN6O3Zn | MND = 5
Zn        6.86880807932440    9.68092888449705   21.35976889190751
N         8.36647648397959    8.30217415829386   21.32486336479854
N         8.74768879099628    7.98081353094968   20.08018250134620
C         9.84724294999664    7.20241998458609   20.12224065630751
C        10.19086309025203    7.03332711788332   21.45466778425419
H        10.99919410538997    6.45094524020887   21.84722554069323
C         9.21817450424880    7.73262064345568   22.17711828908334
C        10.50178206818922    6.66010608286585   18.93314525017651
C        11.87347549858532    6.82405795084699   18.76272504172760
H        12.44316811962390    7.34529166996433   19.51838568692191
C        12.49905202600185    6.34231744189887   17.62716259088432
H        13.56285410812938    6.48139617059051   17.50053560918028
C        11.76317224333886    5.69062456753584   16.65183297997416
H        12.25110730775093    5.32331110855368   15.76099675710404
C        10.40147711073280    5.50388872312278   16.82516140035567
H         9.82359210448388    4.98901210452557   16.07198122307799
C         9.77363707529195    5.97774226119413   17.96120152465766
H         8.71543548209278    5.81798192554001   18.10052047894956
C         9.07820578882594    7.84897127124235   23.62506195568958
C        10.18862753760151    8.12978605106874   24.41605694626670
H        11.15245058962002    8.27413802561838   23.94907761166348
C        10.05506158330946    8.24479804568706   25.78710281322341
H        10.91953981272830    8.47116286026213   26.39451926123882
C         8.81545616583045    8.07540059198648   26.38143946774958
H         8.71281042342962    8.17033788907525   27.45255650085690
C         7.71023434544649    7.78026470618446   25.60097009726621
H         6.74424006088826    7.64066104824759   26.06343374204888
C         7.83936134412748    7.66348808796804   24.23026627913867
H         6.98580872298718    7.41265042430617   23.62013583394422
N         5.87551264273850    8.59722924317853   20.03660954739232
N         6.57356447044819    8.32033991881078   18.93249624696245
C         5.77198015434771    7.73290193521247   18.02308774158356
C         4.49966002379397    7.65294944775858   18.57083806549144
H         3.62435076143335    7.24083714790615   18.11173444996652
C         4.61163837577535    8.22179450191846   19.84315279877830
C         6.23587086327841    7.26238454707597   16.71795919401399
C         6.04336546596846    5.93143269165154   16.35949524369933
H         5.53960939518351    5.26481994219773   17.04445119906280
C         6.51051131791231    5.46144081438496   15.14568462774881
H         6.36463614857255    4.42467077396130   14.87962907214662
C         7.16897047781436    6.31536121767634   14.27691206305500
H         7.54074371403349    5.94517625980635   13.33295005020270
C         7.34352232103909    7.64629122590337   14.61798869114910
H         7.84873553385313    8.31951911697366   13.94173246785858
C         6.87640138260556    8.12043241082420   15.82917656190819
H         7.00427408154913    9.15960218028238   16.08914998465842
C         3.59888607007682    8.47764920631183   20.85974673843496
C         2.32321901096430    8.89929476672672   20.49457279922713
H         2.07100072946263    8.98464920981519   19.44786778291689
C         1.39802675571189    9.23773241243041   21.46454204359934
H         0.41362100564207    9.57405784402603   21.17306344598751
C         1.73336366184588    9.15958990953669   22.80615189492999
H         1.01426480468122    9.43864340633047   23.56180827046013
C         2.99254079689556    8.71742681218202   23.17781259537055
H         3.25497312236643    8.64840226144866   24.22302757893498
C         3.91795520786678    8.37097724059558   22.21148089230020
H         4.89454059547134    8.00915092015737   22.50012305188903
N         7.84765197781021   10.79348759495446   20.05901548348805
N         8.27893998155797   10.14457367321918   18.97409936746678
C         8.71107265613743   11.03200526563960   18.05669749562753
C         8.51712190182737   12.30512972593416   18.57668703201294
H         8.77293945476948   13.23734024762571   18.11574167143820
C         7.97793232965595   12.10289880358534   19.84987659372464
C         9.29527306049105   10.66094040164460   16.76989059628601
C         8.84274662896597   11.26917081706359   15.60201474225264
H         8.05823064793664   12.00986976375926   15.65884516191346
C         9.37839780699849   10.91460236753217   14.37745656092366
H         9.01519826689917   11.38653177708362   13.47605952688867
C        10.37267448488569    9.95312952990500   14.30582912689434
H        10.78413111914010    9.67089990159311   13.34794157054592
C        10.84316069775709    9.36009875946765   15.46580779555728
H        11.62483181511620    8.61661542188188   15.41852100051155
C        10.31469830137399    9.71530038786914   16.69221505811335
H        10.69596886155628    9.26452711512677   17.59527216168121
C         7.54392323161795   13.05796719870531   20.86251230893085
C         6.82872965816727   14.19567546385942   20.49928033618183
H         6.63995921116617   14.39371949687294   19.45436838995467
C         6.33592736564873   15.04683166340156   21.47076469992517
H         5.77166560278637   15.92181850239961   21.18227577256148
C         6.55423142645619   14.77448832378027   22.81119610473989
H         6.15798355098376   15.43353557318051   23.56939468593327
C         7.28756479904087   13.65809279968036   23.17844945146638
H         7.46673346149956   13.44797534189062   24.22222261075058
C         7.78580361618655   12.80525587894054   22.21095012595690
H         8.36876568583947   11.94115888027149   22.49771738449586
B         8.07823622698640    8.62155211718647   18.86146890240187
H         8.53267076896339    8.21672561375976   17.85465370429655
O         6.59260090096651   10.03506442559992   23.21157619343240
O         5.19056870352263   11.12484972842978   21.24787949853857
O         3.86453899764322   12.31488226429615   26.27094261010416
C         5.63852189036693   10.82525269729396   23.53399663363549
C         4.87028004831932   11.42527372646170   22.39677818525139
C         3.79066030747251   12.33505040821660   22.69978495393469
H         3.26288540863705   12.76018293672117   21.85601568544754
C         3.46043047680776   12.64024754504482   23.96406451970300
C         4.20522980221923   12.03229565556464   25.12593777106995
C         5.27986482891075   11.14642877883926   24.81479388748789
H         5.82532668080508   10.71628594318066   25.64181884524344
C         2.36829517213401   13.58175035195790   24.31549063891040
H         1.69269608362484   13.10685002735754   25.02534829437365
H         1.82060887819797   13.90949371434552   23.43652690087593
H         2.79219080760347   14.44629745566095   24.82613877888053

