101
CSD_code = VICREH | q = 1 | S = 0 | Stoichiometry = C51H38CuF6N2OP2(1+) | MND = 4
Cu        6.33339902785167    3.48711228236982    4.90260997888721
P         5.30511192441323    1.44017219630576    4.84203948873077
C         3.81092021896096    1.39717281828634    3.81066043209729
C         3.07877625841248    2.57393514052675    3.68828878046205
C         1.91762169510903    2.59469236795426    2.93919607283914
C         1.49570572857559    1.44486526930921    2.29149260379069
C         2.23111632676526    0.27509733769634    2.39881028008443
C         3.38560843247037    0.24367517754924    3.16008049698751
C         4.76372870679049    0.80412493367348    6.45402327964761
C         3.42827202165190    0.70365109530582    6.82637478057749
C         3.10146861119480    0.30758113582762    8.11211446348605
C         4.09826367411981    0.02305924439007    9.03097418230920
C         5.43233781032127    0.13941892549480    8.66871637935081
C         5.76461493227877    0.53944894838669    7.38901746786181
C         6.28924384360068    0.07843261960970    4.16214558717540
C         6.95985379828144    0.43130189746401    2.98951854323148
O         6.74636834501729    1.71805589380168    2.57682315171321
C         7.72974693048024    2.26921211973827    1.80070214758992
C         7.79138395594467    3.66579634925965    1.82162130036713
P         6.54503332828576    4.47040857523400    2.87259679001603
C         5.06290894585871    4.50385401730976    1.81820154603427
C         4.84718118549735    3.62526009933491    0.76445138496441
C         3.66874968242253    3.69401623256023    0.04193409340446
C         2.70560399833940    4.63500253094418    0.36280246124325
C         2.91461167588153    5.50920323599549    1.41882476885451
C         4.08270831419193    5.43793777441870    2.15167685754747
C         7.06131363647333    6.21266344772820    2.85776250720963
C         6.95270109548689    7.01045749422057    1.72119638561717
C         7.37819554631078    8.32512970480190    1.76410787285607
C         7.90860101619458    8.84981314472375    2.93321120398466
C         8.00883579891275    8.06169944502579    4.06817588011819
C         7.58283338493784    6.74607337734555    4.03155095405937
C         8.79687036136933    4.30952502063274    1.11363484795200
C         9.70525290746769    3.55543421275460    0.39276023144685
C         9.61570110758140    2.17319577602933    0.36319236868265
C         8.62397596059413    1.49797493394258    1.06462533072824
C         8.41027928637122   -0.00559365138012    1.00255950523453
C         7.79554013446216   -0.45194417126075    2.31769013009881
C         7.94254273707296   -1.72118633755920    2.86515138248253
C         7.27799174925239   -2.08875821286675    4.02448983821104
C         6.44617872100373   -1.19885868425573    4.68061663686101
C         7.37229323415268   -0.27867960352268   -0.10580678316716
C         9.69995268574817   -0.76047680803495    0.68087361897943
N         5.72853461961108    3.99292270766738    6.78015816680101
C         6.69582764193970    3.75632651958751    7.68120139866148
C         6.40489639201522    3.44289617897846    9.00609059072138
C         5.07502410927080    3.38031197976041    9.39046884316844
C         4.07498100898307    3.65717615738022    8.46206579662783
C         4.46021951399812    3.95515588587566    7.16943400349608
C         4.72899694607431    3.03322363004811   10.81647833623830
F         4.83438483896036    4.10084376658584   11.62087223765686
F         3.48183397687723    2.57054820949407   10.93904930421360
F         5.54777731956848    2.09486286159091   11.31044966569824
C         8.06013700328273    3.80371513892620    7.15446491561114
N         8.17198007799805    3.56128933798808    5.84256320431599
C         9.35980533563978    3.59866251170730    5.26083108231392
C        10.52320130216757    3.87339010989351    5.95680772794759
C        10.41651594772624    4.12605759444030    7.32299572552909
C         9.17583651130476    4.09898695178164    7.93744795575611
C        11.64905195686351    4.47692796138192    8.12274831226853
F        11.90216880658412    5.79351832998468    8.06002187010983
F        12.73673526225885    3.84766036603362    7.66893763039618
F        11.51618786011570    4.16576566686651    9.41543026461102
H         3.43720981217961    3.47070726464704    4.17901176559672
H         1.34449348105648    3.50533421385964    2.85607585251796
H         0.59233842684846    1.46011355035842    1.70137843796817
H         1.90032248902757   -0.61877040055146    1.89180551382640
H         3.95482906497434   -0.67078716916634    3.25157523651905
H         2.65104561034438    0.92277813170582    6.10773241899813
H         2.06474902783518    0.21923589463792    8.39876085763821
H         3.83791248315570   -0.28692686499484   10.03090031145524
H         6.20765928491381   -0.07881368312846    9.38774239739825
H         6.80290531679472    0.64001450821276    7.09402974100252
H         5.59939527571130    2.89875052217599    0.49673384719511
H         3.50591213209942    3.01383669222607   -0.78052207428406
H         1.79296500159679    4.68989379218271   -0.21056563254755
H         2.16591230636213    6.24624652036708    1.66855061726940
H         4.25364307038953    6.11429490678292    2.97994251781706
H         6.53159876272025    6.59968571901758    0.81380960070945
H         7.29580065723147    8.94432559119107    0.88371179098487
H         8.23858592805907    9.87684071042593    2.96022400816969
H         8.41415700852872    8.47433251345237    4.97983402341091
H         7.64002728466684    6.11987092214884    4.91438193472872
H         8.87058063060114    5.38614565752084    1.13316720305660
H        10.48861394232029    4.04880663515252   -0.16101540872332
H        10.33249132729551    1.62182758996412   -0.22184772243349
H         8.57690109977747   -2.44609687853769    2.38296337858254
H         7.40729879078558   -3.08566694788389    4.41619585217869
H         5.92794074552593   -1.48856168290882    5.58246123444752
H         7.17804954996020   -1.34606765965264   -0.17855414554119
H         7.74602704095219    0.07621368152442   -1.06348059417286
H         6.43225123032937    0.22682095486606    0.10933882524383
H         9.50890883404169   -1.82733814640642    0.61717369271156
H        10.45531000282010   -0.58171722965521    1.44278669009987
H        10.09030235259225   -0.45247374084225   -0.28437815838256
H         7.18831018949219    3.21865564531981    9.71207303409472
H         3.03506112031346    3.63467211311365    8.74289097308500
H         3.72297031017105    4.18017676046940    6.41190742340953
H         9.37579523296976    3.40211837827501    4.19680668730293
H        11.48089292220781    3.88736551546727    5.46288702799774
H         9.07953708682234    4.31915684579725    8.98840457948225

