61
CSD_code = VICTAF | q = 1 | S = 0 | Stoichiometry = C23H29N6O2Pt(1+) | MND = 4
Pt        1.84828655479914    1.24325881070759   10.91897089937521
N        -0.84505388560520    2.89891164172757   11.11150347843949
N        -0.22132180202807    1.74442891699852   12.81608123672062
N         2.08010822613639    2.12852808513926    8.96516797690096
N         2.19344001696997    1.46488659065931    7.80252444150834
H         1.89691830892374    0.50406918037733    7.71811812741526
N         3.54467858556664    0.18942694113761   10.50642977285071
N         3.60219294248832   -1.13734255788693   10.29404947208198
H         2.76307483854393   -1.69917374369125   10.27057206795798
O         3.07129643452529   -2.26251357017544   16.45236549005027
O         4.13366740813237   -2.49627920507012   14.49077891698611
C         0.13022711137898    2.08564398367920   11.55115131819324
C        -1.78760025345206    3.07018545501522   12.09106721101363
H        -2.65200040955362    3.68494673592274   11.94859656576185
C        -1.39517356109918    2.34204052682103   13.16539859911427
H        -1.86321572194379    2.21676327714615   14.11888887824988
C        -0.94478326263874    3.50773726203427    9.81337457153259
H        -1.90636008912825    3.26293204361028    9.36093052908006
H        -0.14396646590476    3.13395681166814    9.18072499104392
H        -0.86559368791166    4.59274544658417    9.89639336057419
C         0.60763290665928    0.84437566273892   13.50855954957764
C         1.71525834135626    0.42267565822685   12.75316181075094
C         2.56679711789271   -0.48638506168072   13.35440984944902
H         3.45340112439689   -0.86616713461260   12.86800225220462
C         2.32279632371026   -0.96783496765164   14.64267279585124
C         1.22355726008004   -0.52245570495388   15.36462687430068
H         1.04716611180040   -0.89709598810432   16.35959126929554
C         0.35737984143247    0.39540985942062   14.79443878006844
H        -0.49985721900107    0.74497153969011   15.34845980510106
C         3.27372340045513   -1.98205225784588   15.16996858058155
C         3.94293553620227   -3.23309194563203   17.04137943073795
H         4.97806385340059   -2.89785204118016   16.91290001858268
H         3.82426165656550   -4.18140024500338   16.50539818538738
C         3.58209849891334   -3.37469276690183   18.50700536946780
H         4.23310226071810   -4.10894869892919   18.97155532441789
H         2.55055855376422   -3.69998816370665   18.61092600891042
H         3.70076543715737   -2.42265487201247   19.01705865997178
C         2.52040420044286    3.36185139845670    8.74416932543890
C         2.90972227079090    3.48645787952676    7.40280154062221
H         3.30240322814633    4.36074433317212    6.92822512931019
C         2.68780024859218    2.25410473400487    6.82452004082023
C         2.54137786927932    4.38550326392931    9.82023669488143
H         2.19706747386911    3.94203632375801   10.75922640566343
H         1.89815661963163    5.22405418087394    9.55943138103555
H         3.54875681742177    4.77292578527998    9.95661043592072
C         2.90587838129262    1.76662089563138    5.44339090593023
H         3.64550341499849    0.96655532483376    5.43063552076402
H         3.26225250162771    2.57785121957902    4.81641591383418
H         1.98021859256652    1.37813698856585    5.02068232353595
C         4.79490075842601    0.61559636680778   10.63038540961695
C         5.67149800792838   -0.46678076520529   10.48330452306541
H         6.73931129736314   -0.43862298892043   10.53444427822670
C         4.87761375581000   -1.57952685543187   10.28997237402884
C         5.08391183188926    2.04220842935128   10.92177989501322
H         4.19588732759075    2.49962105126504   11.37034647876693
H         5.34856505684865    2.58037810720237   10.01199274196384
H         5.91503051174800    2.12169436912692   11.61740488380501
C         5.22244545022244   -3.01163516652626   10.15098828210573
H         4.54100395892470   -3.51614945003789    9.46912820755874
H         5.15448578126115   -3.49810703197696   11.12493699674742
H         6.24004234861390   -3.12118389802718    9.78806783990938

