109
CSD_code = VICXUD | q = 0 | S = 0 | Stoichiometry = C52H44N6O6Zn | MND = 4
Zn        7.23637600095539    7.69614304681914    4.48103751703563
N         6.57153305415126    7.49315011219418    2.66684834289341
N         9.66520947666105    4.74350407791870    3.40502024515865
N         9.46263980523406    3.96049033933850    2.30831141614892
N         7.15386061613744    9.56771232703937    4.98777233996696
N         5.47550694627779    7.20884721177032    8.05047219445400
N         5.28116858191020    8.21508027307423    8.94807313643285
O         3.61898519657883   13.42885478178265    2.91401699094035
O         4.50035440538291   13.51327161569774    0.85072333368640
O         8.80172978049663    6.69930976051626    4.31895211662300
O        11.11557545871386   13.79381245611772    1.58184271628708
O         9.29696669011500   15.02342387946514    2.02880080352054
O         6.23058760687423    6.96109095092856    5.86677570236833
C         3.78256922703555   12.99248118273779    1.66272641739402
C         2.97677750488708   11.73202544557595    1.41999940897481
H         2.66311055535156   11.71952283870607    0.37572595313932
H         2.11018343313823   11.71948073028824    2.07887212354335
C         3.88639215829652   10.56470847214529    1.70883717066109
C         4.96144669223558   10.29785975120931    0.86969645751812
H         5.12340570599477   10.92025186925450    0.00278765565752
C         5.83875850802056    9.26951733440216    1.14672473858218
H         6.69292489104297    9.10405195238345    0.50871819458632
C         5.65461827516670    8.47807300846979    2.27929747778401
C         4.57940385018982    8.74720625290175    3.12315991942672
H         4.44002869278574    8.13609461123602    4.00425594862901
C         3.70837624888558    9.78041033588296    2.84091018040314
H         2.88331451435668    9.98115218219230    3.50926649963938
C         8.80976201228809    5.80498183877014    3.41268071560103
C         8.03874112774078    5.70036637908644    2.21528025672260
C         8.51633020483162    4.49946258000916    1.59461869470116
C         8.04702835103234    3.81768364182550    0.35950657890482
H         8.38748605518077    4.34277044897639   -0.53112779013610
H         6.96025599411459    3.77513302055328    0.33228881546637
H         8.45386510735906    2.81007944158839    0.34791075713070
C         7.02317151654802    6.59243988864848    1.82672454813051
C         6.43760562654432    6.47425867818088    0.47014859947065
C         7.22818403111033    6.67676859682360   -0.65624574061570
H         8.27430850336527    6.91921300621110   -0.53338666238062
C         6.67207314422403    6.58886624710140   -1.91910598296138
H         7.28859627542878    6.75468921680611   -2.79029263539118
C         5.32819375961639    6.28787608782207   -2.06736292463634
H         4.89697194269956    6.21436300730909   -3.05447832925357
C         4.53800339730946    6.08461241960667   -0.94864175946232
H         3.48983811242523    5.85079786314198   -1.06117085171832
C         5.08637335186289    6.18567373338232    0.31690569549572
H         4.47306644200170    6.02983538080692    1.19249793309819
C        10.63453927973436    4.36128521833661    4.34062106534598
C        10.75700676164256    4.99495883757584    5.57278849164410
H        10.09725794794576    5.80663485552597    5.82955656892062
C        11.72876270643235    4.57409479618955    6.46269589155790
H        11.81908374982797    5.06800593178232    7.41905589677273
C        12.57838102735433    3.52974082085492    6.14023976814839
H        13.33443730493916    3.20851574826181    6.84117678072909
C        12.45113886529936    2.89796106526035    4.91373755782157
H        13.10829759178990    2.08076199313768    4.65506694938360
C        11.48598982296974    3.30764948194019    4.01509400689980
H        11.36895369408159    2.82491805357807    3.05854759076355
C         4.35431381287269   14.58170421345998    3.31213536129005
H         4.65966414598679   15.15220243437382    2.43333668325189
H         5.23774145514591   14.27458800449252    3.87470252722017
H         3.69881317216579   15.17700493628715    3.94477274375168
C         9.80427763672624   14.05583967526631    1.52941266740196
C         9.06237252614931   12.94568618647903    0.81241536028292
H         9.75206959467534   12.42070133688794    0.15332370699161
H         8.23706668940841   13.37800214128037    0.24790555327574
C         8.53591515593410   12.03309841348490    1.88891325882945
C         7.27342887003426   12.24558528270045    2.42513261517151
H         6.65467622163170   13.02840192144110    2.01604222173402
C         6.79975675058454   11.45971264948187    3.45643779018119
H         5.80048196841656   11.61177387579427    3.83354869056118
C         7.59071887714972   10.43733295447178    3.97718850482615
C         8.84669423324308   10.20516028114969    3.42034419448908
H         9.44952528298117    9.39687899884592    3.81150076357800
C         9.31764592401394   11.00295439849120    2.39706847750847
H        10.30085836798453   10.82420860998963    1.98639516310925
C         5.97255994937932    7.69164296885528    6.87619664378280
C         6.06450962461829    9.10731176276364    7.03549324313695
C         5.61590463015736    9.33707015012348    8.37855856722033
C         5.55496887610341   10.60112160204321    9.15911611678209
H         4.72259280793297   11.22274183566659    8.83421471959825
H         6.47201903047670   11.17388934745427    9.03849490862011
H         5.41526805642244   10.34972142085113   10.20711160651089
C         6.55312421305297   10.00594447779288    6.06918738750340
C         6.40477665716502   11.46056711608782    6.31482891116105
C         5.13298916883772   12.01886162976574    6.39813392053796
H         4.26645105308787   11.38268137979543    6.28830449753118
C         4.98391054278055   13.37918880739828    6.59416011483806
H         3.99413764477880   13.80737061151114    6.65109502180663
C         6.10071537744115   14.19053437301318    6.71409957866990
H         5.98332183478890   15.25305064822023    6.86601225883250
C         7.36812183290746   13.63843227900212    6.63348932140324
H         8.23938067949113   14.26943660306285    6.72373976284880
C         7.52231721580881   12.27924012012430    6.42863378720653
H         8.50925691014702   11.84492712110045    6.36256875544750
C         5.19611473946299    5.89148956655036    8.43516433611386
C         5.54561088541404    4.80407037702494    7.64124877113185
H         6.04339703903350    4.96113659268591    6.69915218443809
C         5.25068776885069    3.52284956148634    8.07126325320471
H         5.52563357427382    2.68169385108286    7.45199094914341
C         4.61332774268339    3.31249791297045    9.28203276297082
H         4.38689695222937    2.30865199405092    9.60929972585422
C         4.26989810073885    4.39759048005698   10.07215039335914
H         3.77457978166234    4.24230001513198   11.01931900313978
C         4.55743762627539    5.68238055841142    9.65557902561104
H         4.30231344533916    6.53824903199400   10.25902190969824
C        11.91499600986801   14.72601760122778    2.29664563375678
H        11.79022043433763   15.72815839209732    1.88187182486695
H        12.94367035070032   14.39215810570194    2.18910518411874
H        11.62516117408130   14.74276031138132    3.34918414809569

