99
CSD_code = VIDBEQ | q = 1 | S = 0 | Stoichiometry = C50H44CuN2P2(1+) | MND = 4
Cu       12.34843823977207   10.63854691460482    3.92366756936328
P        10.64536050654114    9.28117233741762    3.25394870609334
P        13.71311950644480   11.64513870069526    2.46089816810090
N        11.39915334121730   11.69403621759045    5.40811317495050
N        13.13623538508957    9.67448627008164    5.54829970236766
C        10.46216258980643   12.61858195867782    5.29431277985632
H        10.29715009906942   13.00759100740189    4.29840436219369
C         9.72582573744007   13.07429562587744    6.37513709797528
H         8.96709840664624   13.82713568593923    6.23845197400333
C         9.99345830318001   12.54602798512766    7.63203043008383
H         9.44524887316878   12.88458962737853    8.49753185674017
C        10.97235702608461   11.57807859501934    7.75582559680507
H        11.20545295506837   11.13832051849628    8.71305652943513
C        11.65390989307681   11.16028172762263    6.61167559963513
C        12.63785530890946   10.09844582831273    6.64719932463246
H        12.92265333747722    9.70653655655693    7.62188488052586
C        14.02163685460238    8.61412374149449    5.43899975611767
C        15.08411114077498    8.78860058494337    4.54651835799535
H        15.17071897041059    9.74056788519483    4.03773036828363
C        16.02623209576160    7.80166468460218    4.33513201610367
C        15.86866341230122    6.59147323926471    5.00683820239258
H        16.58719125384258    5.80005950191578    4.85581831841769
C        14.79406477149680    6.39103103851676    5.84880220805996
H        14.67429412278741    5.43676272773934    6.34039767874230
C        13.85446255730545    7.38522967029508    6.09534869883042
C        17.16773426901081    8.01053444360334    3.39143426795687
H        16.93392478998185    7.56910082532634    2.42202137714631
H        18.06950359724178    7.53385478117414    3.76853549499531
H        17.35996581554040    9.06960499019891    3.24148011596111
C        12.68415694180937    7.07149873146587    6.97741285230295
H        11.82601310957335    7.69976725449301    6.74537115873868
H        12.93948942133158    7.21211915334976    8.02825223126816
H        12.39221622450697    6.03155326158671    6.84453139849441
C         9.16193691004116    9.62972247999110    4.24646428657097
C         8.10036957961984   10.38693359361753    3.76367166795099
H         8.07687494519824   10.68401814491443    2.72474130987114
C         7.06788862279160   10.74870125882655    4.61162850426440
H         6.24032698182177   11.32680576604898    4.22881570986305
C         7.09213227847824   10.37353839826959    5.94430647689413
H         6.28546272565270   10.65917205846905    6.60177277029993
C         8.15270964776965    9.62634916999074    6.43340590512634
H         8.17307694818031    9.32864700775006    7.47145716050024
C         9.18423218642465    9.26216700747707    5.59128164344391
H        10.01431410760833    8.67694432142794    5.96582101771361
C        10.92132249618964    7.49763526157370    3.46948853663938
C         9.93211240876594    6.60987531605634    3.88245536103940
H         8.93074889155255    6.96650413705916    4.08058785449020
C        10.23722976012561    5.26966273140297    4.03725334863486
H         9.47037871476154    4.58075456306295    4.35862044847477
C        11.51912425314407    4.80927344052554    3.77877394863824
H        11.74920156016227    3.76210342869282    3.90400896794543
C        12.50312943570698    5.68973203755731    3.35898254698847
H        13.50216282739576    5.33430429542736    3.15678042523022
C        12.20773160183426    7.03176397634885    3.20906027324998
H        12.97306576137547    7.72950862604212    2.89391721053641
C        10.05033920709795    9.43227165028930    1.54157882644238
C         9.62218853539206    8.35330324709479    0.77753262240408
H         9.61992055522858    7.35742397061259    1.19732527901311
C         9.20076604643301    8.56411193862522   -0.52387734632928
H         8.86532843579094    7.72778970787858   -1.11850490806727
C         9.20684552214147    9.83983880243194   -1.06477781907162
H         8.87559362785577    9.99515824314849   -2.08010986010026
C         9.64120835117208   10.91641987048734   -0.30684121727934
H         9.65315563046776   11.91091292076864   -0.72699984888646
C        10.06849054242943   10.71233429599639    0.99094361429996
H        10.42739078237393   11.53975265575294    1.59243246650633
C        12.90576825459274   12.78589886538186    1.29287480671061
C        12.28729697081836   13.90001712046969    1.85852690013744
H        12.34492761608549   14.04587186368014    2.93077016744629
C        11.62321334077704   14.80759257684021    1.05705354177671
H        11.15174676184661   15.67434199992577    1.49595260190303
C        11.56502285405289   14.60435389586496   -0.31387735183060
H        11.04756169951786   15.31379560604276   -0.94164194352381
C        12.17103383085859   13.49375401630091   -0.87687241382959
H        12.12763445453064   13.33723016112498   -1.94444048243632
C        12.83864972936211   12.57976047572368   -0.07903581160905
H        13.30711741230024   11.71358481943900   -0.52361866344091
C        14.57631508155345   10.47854009809314    1.36563555534824
C        13.79222035904331    9.46023821934526    0.82531216785206
H        12.73395136232458    9.42819130035212    1.06136591717973
C        14.35718063298378    8.51265639044259   -0.00548611132446
H        13.74403847730883    7.72845216771164   -0.42410482147349
C        15.71212904412918    8.57181839606867   -0.29592295003905
H        16.15673812288520    7.83328306228615   -0.94557279214849
C        16.49650854816813    9.57517884611513    0.24906161347296
H        17.55195825078078    9.61687617578274    0.02513370382568
C        15.93579475438398   10.52731106164309    1.08368121757941
H        16.55407875011334   11.30358330967444    1.51196045950353
C        15.01338863765918   12.71978413994561    3.13934527754786
C        15.28353706752045   12.64855334329487    4.50192449497884
H        14.71355632599064   11.96400017010096    5.11864961354988
C        16.26293785689328   13.45217171011680    5.05759781814748
H        16.47332479881575   13.39465102167430    6.11514869646914
C        16.96930005194520   14.33371488860709    4.25564694361859
H        17.73272429520202   14.96208473036530    4.68825463483666
C        16.69230237976289   14.41800716484963    2.89932209370676
H        17.23884417718680   15.11242227981348    2.27908475818134
C        15.71524616336709   13.61744772943059    2.33772202588351
H        15.48843319868437   13.68778599766248    1.28248889376070

