55
CSD_code = VIDCOA | q = 0 | S = 0 | Stoichiometry = C14H32HfI2O2P4 | MND = 8
Hf        2.25743260509865   -0.10379989197492    3.95121112985428
I         4.72768386962788    0.80958299775178    4.90413875258845
I         3.19463966895739   -2.53519015565774    2.90100262970015
C         0.93160950215399    1.73962738087809    3.19583861046591
O         1.02042886440574    0.54244349035940    2.58818030769307
C         1.09719833851454    1.87521503177317    4.60889946122530
O         1.39896468983310    0.83708597440680    5.39983567657686
P         2.37143717939035   -1.61057722778738    6.41030739616683
P        -0.05104275185963   -1.47119652941021    4.26933110855928
P         3.36527402839841    0.88697425289871    1.55779024546049
P         1.87516465139334    3.26804447438059    3.72543533040142
C         3.19728645454840   -3.22260108149758    6.74411587496011
C         2.88375467861790   -0.69424171651223    7.91607420166479
C         0.62391096872988   -2.02089649432103    6.89690368689858
C        -0.12474413133331   -2.63359036254961    5.71701261964479
C        -0.79036200016634   -2.53363416393101    2.96219905763596
C        -1.48749060706992   -0.38206823381702    4.62883744787925
C         2.73384858353962    0.04626694398514    0.05112180222508
C         5.15401801016247    0.95813502710560    1.10787590087786
C         2.86587844730155    2.62786914139840    1.15466677036545
C         3.13173782107971    3.54243574471871    2.33958989381129
C         0.60740915953822    4.54545589314745    3.40298874783464
C         2.86150026694130    4.16777155531214    5.04598142326612
H         4.27038471748554   -3.08883375632488    6.61113173201297
H         2.99643460675571   -3.56205864105869    7.75921322752312
H         2.86298516920770   -3.97086945713375    6.02765998915514
H         3.96717909919380   -0.57600446073298    7.90568123391353
H         2.42495351445515    0.29323233985349    7.90346134264422
H         2.58060965161744   -1.23401712427296    8.81366755874688
H         0.14960240381051   -1.08128738943785    7.19707372564195
H         0.63034138042935   -2.69550681146159    7.75984044070616
H        -1.16551097559084   -2.85563936441381    5.97400279626349
H         0.35814256508191   -3.56811791626999    5.41176701262813
H        -0.94480490784583   -1.93081779957912    2.06744310370896
H        -0.10430026104159   -3.34420950972292    2.71963118597865
H        -1.74323815633690   -2.94668631568643    3.29144015666654
H        -1.65006081794351    0.27551989098058    3.77449572663801
H        -2.38378541327761   -0.97836056601557    4.80493316672086
H        -1.27623857983253    0.23450209830765    5.50181535712429
H         3.18430336878422   -0.94380167363983   -0.01774234288898
H         1.65190575333098   -0.05837773675218    0.11564654127400
H         2.99664143573851    0.62708158666758   -0.83375325063986
H         5.57477067119278   -0.04122464279346    1.22499808208702
H         5.28975458614540    1.28585521979568    0.07802538769324
H         5.68960770752317    1.62739961587769    1.77986657448190
H         1.79724874447809    2.62751502360435    0.91422434185749
H         3.42519633122434    2.95172195779283    0.26972782292930
H         3.06551470914373    4.59633597321685    2.05211702155174
H         4.13677072780718    3.37539395717622    2.74496024711778
H        -0.22489802917089    4.36982173636046    4.08366247411621
H         1.00518258698210    5.54673103136467    3.55829408860787
H         0.25234516688981    4.43944540639865    2.37821699795289
H         2.16096674742508    4.36686497804572    5.85956557478754
H         3.67933316340845    3.56721562816256    5.43850535988656
H         3.26742403512621    5.10726467106132    4.67458924738174

