83
CSD_code = VIDDUH | q = 0 | S = 0 | Stoichiometry = C38H37ClO4P2Pd | MND = 4
Pd        4.13244947208552    2.02931266153747    7.30264599288229
P         2.31286680779177    2.81385448882550    8.37508631973337
P         6.64906546546872    2.46900733483874    7.27320801804485
Cl        2.81116954960534    0.29085894875998    6.60172093936559
C         1.43324213567678    1.47569407329870    9.23120842363551
C         2.24288141102050    0.47104204780395    9.75787287680823
C         1.67620262056887   -0.58410488978135   10.44534171920292
C         0.29982260072961   -0.64369879588510   10.60373584616145
C        -0.50580934728728    0.34808902419180   10.07068344182507
C         0.05594181722777    1.41176011082834    9.38460150395875
C         1.17843099208613    3.53737203020758    7.15912734609497
C         0.08511422407065    4.31973423336926    7.52162188146735
C        -0.74131765332258    4.84189504364555    6.54321891220357
C        -0.47851000878208    4.59434415821130    5.20479034005586
C         0.62181880027628    3.83487960280800    4.83996122961554
C         1.45459340855208    3.31063126193369    5.81264568743796
C         2.41713454640270    4.11179412442950    9.65102159782668
C         2.72698636149522    5.40940025713383    9.24733784019244
C         2.88084560280791    6.41007160589453   10.18781761474749
C         2.73820522951780    6.12488221098230   11.53687225870794
C         2.44567825453792    4.83370545141322   11.94300788303543
C         2.28990743649613    3.82691081403946   11.00635698931414
C         7.10641608560239    1.86241101522999    8.91825364044839
C         6.16669265161617    1.86219689399227    9.94625061796224
C         6.53378460965993    1.44914181455454   11.21315269105734
C         7.82992294152151    1.02101308504984   11.45766108025166
C         8.75949853649291    0.99974481661638   10.43113209749679
C         8.40198400553482    1.42420120674132    9.16301392613788
C         8.19065012665602    3.08599751096291    6.54618918905322
C         8.66965523077570    4.33526816112470    6.91721325257655
C         9.84048501130467    4.80982358608251    6.35648934734435
C        10.52643676526340    4.03846885234247    5.43070716570599
C        10.04511911858075    2.79237404740041    5.06210166748946
C         8.87254396585795    2.31179250245330    5.61724637210612
C         5.40856426887768    3.69532848535033    7.60647228191344
C         5.09972508434456    4.22798705539968    6.30634643472706
C         3.84896492530036    5.66475296511853    4.93660154646692
C         2.79275183933920    6.74584790741684    5.06434124308447
C         5.81446410051187    1.22426360474223    6.32300184594221
C         5.94565291483062   -0.16506001686306    6.78375430921649
C         5.36469150048613   -1.62286761571077    8.56013776433781
C         5.81959352322029   -1.68702064922736   10.00745115804812
O         4.14838827649237    5.17401991080257    6.24496023263576
O         5.71465929535888    3.82992433636916    5.31704551121524
O         6.36982132113258   -1.09104116950885    6.13579824115580
O         5.48531339519784   -0.29233090737400    8.05708801086532
H         3.31702619370044    0.51547844263629    9.58381533665174
H         2.30096105025086   -1.36855665755170   10.84726147667520
H        -0.14632472732231   -1.47347060659249   11.13205484656677
H        -1.57871248058823    0.28997111976273   10.18248887711188
H        -0.57521489562762    2.17613820141976    8.95513167201296
H        -0.10600500427725    4.52860285135950    8.56593892397460
H        -1.59235025645733    5.44545763295879    6.82411264030061
H        -1.12900741695917    5.00218675884252    4.44506238456403
H         0.82935807016821    3.65396013008623    3.79558697062843
H         2.32524697604421    2.71042744545960    5.53324342898114
H         2.84939989639733    5.61965084400088    8.19379234949525
H         3.11543754786499    7.41565353604483    9.87045769839369
H         2.85864049156216    6.90809183123380   12.27064536863059
H         2.33786290361564    4.60942203241885   12.99402414237654
H         2.06081647921994    2.81879753652344   11.32372808255943
H         5.13834228904581    2.17347368608983    9.74934465159208
H         5.80745176946728    1.45636605347922   12.01302081620768
H         8.11270040894542    0.69568078194116   12.44780999950335
H         9.76570733630619    0.65463590394939   10.61822462706593
H         9.12564251835524    1.41686052164302    8.35887143253333
H         8.11597963747507    4.92242049853350    7.63884849721723
H        10.21918836514216    5.78196502459045    6.63677838725962
H        11.43887092610276    4.41373354658839    4.99122374583637
H        10.58220834387040    2.19767234044111    4.33811780352367
H         8.47860298891824    1.34259534661482    5.33999158559805
H         5.32679800180330    4.29088583153170    8.50961332662505
H         4.77122883243993    6.05355189151291    4.48918405048481
H         3.49442102635293    4.83195903934045    4.31945409973122
H         2.54526011880150    7.13051390417840    4.07923180309238
H         1.89435859545780    6.33921575907616    5.52205043386915
H         3.16233941042395    7.56141419930366    5.68079405952472
H         5.94301321436819    1.34158050486837    5.24477651201128
H         4.31018138797727   -1.90788060845087    8.46748076128243
H         5.96822275076986   -2.28347807842920    7.92841689648972
H         5.71161499477379   -2.70509858726375   10.37171863382440
H         6.86232143402419   -1.38976498349262   10.09270431216986
H         5.21941160085635   -1.02368687211257   10.62520507608870

