55
CSD_code = VIDDOC | q = 0 | S = 0 | Stoichiometry = C26H18Br2CdCl2N4O2 | MND = 6
Cd        0.34718041172452    7.54660851335448    6.76360956927280
Br       -1.24611325198947    8.10560444717160    2.41786298979499
Br        3.84670814459528   10.14684180472414    7.80972339170404
Cl        0.74237469179764    3.09434608086974    1.15729933767607
Cl        1.70217112343099   14.08616739806108    4.55589187351379
O         0.57349325311147    7.76028161246813    4.65551865612571
O         1.14016620280080    9.19028457166808    7.67158467910053
N         2.16123616022296    6.35433043846911    6.38407434888212
N         0.91339866542787    6.49275165700265    8.74172617644080
N        -1.36562188643914    8.88482821264623    6.47653348178919
N        -1.40915189084140    6.12911199517678    6.28398500220282
C         1.46719311598928    5.57452125479470    4.22942555488191
C         0.64574743470492    6.71614060871382    3.94373923045289
C        -0.12264749916240    6.62134231681571    2.74548498403468
C        -0.11268820309773    5.54867074140113    1.90055136501934
H        -0.72601128437036    5.53090841521442    1.01289078560905
C         0.71883847867579    4.46929512089570    2.21242608226016
C         1.49585669288165    4.48684830219526    3.34408672547143
H         2.12866434576199    3.64174136085027    3.57222659507715
C         2.25706297228064    5.51871626204370    5.42236963589728
H         2.98327688149909    4.69303917997089    5.47731166826177
C         3.01108037673404    6.24651385328136    7.53197116058244
H         3.77265946608453    7.03655221293932    7.47195286127996
H         3.53244158548608    5.27356592039389    7.57480651322097
C         2.24074988381401    6.46142822706543    8.81275270198913
C         2.92161842126544    6.61720982300799   10.01740079888461
H         4.00025377375852    6.60293040276409   10.03341770747805
C         2.19424791074294    6.81617452257561   11.17520787201649
H         2.69619828819233    6.95253909649183   12.12128564056146
C         0.80851893639974    6.84718446743931   11.09677450756942
H         0.20461577925834    7.00353892326121   11.97646611395526
C         0.21770523719754    6.68701926253582    9.85724232873680
H        -0.85956896897993    6.70406840521309    9.74203491171859
C         0.13982988089218   10.72933365421250    6.11350908105815
C         1.20895700457841   10.21079941430053    6.91397235884578
C         2.42881876526937   10.94036672656350    6.84629241182465
C         2.60478691368160   12.10114848857683    6.14980685438174
H         3.55360686774546   12.61536424341720    6.14249245134234
C         1.51460227398904   12.60409007718096    5.43286905830017
C         0.32032579217272   11.92812911296738    5.40239634515217
H        -0.49663863000701   12.31301095459161    4.81029874717426
C        -1.08502456407524   10.01417829923908    5.93786580914231
H        -1.81135318719460   10.48868029549694    5.26355915659951
C        -2.60222528951478    8.23721015036796    6.11782522338616
H        -3.14701221483205    8.78940569270921    5.33652549238410
H        -3.23352585356478    8.18550524091573    7.01754745711283
C        -2.35428046746825    6.82174609961589    5.65135980175596
C        -3.09300636324922    6.27230328967126    4.60789960660560
H        -3.84338118280623    6.86262384398424    4.10551013373424
C        -2.82571199997518    4.97550992424673    4.20525134606952
H        -3.36854741286854    4.53588303101025    3.38223073465586
C        -1.84340322942971    4.25740125847491    4.87074347151569
H        -1.60170834817629    3.24592974408994    4.58668095192563
C        -1.16537971875723    4.87964951834069    5.90424017358627
H        -0.39728428536452    4.35922552855346    6.46398808198833

