46
CSD_code = VIDFIZ | q = -1 | S = 0 | Stoichiometry = C19H18N2O6V(1-) | MND = 5
V         1.44735669407909   -0.22146610595744    6.82384834441741
N        -1.52138034258870    1.01048351517109    3.08108432468901
N         0.43054740919215    0.23416128247936    5.02885529128114
H         1.20718922500867   -0.00326480909418    4.40881704344801
O         1.74959085042404   -0.47136193160781    8.59265856074789
O        -0.29452907406823    0.38171995691524    7.48675685277255
O         3.12976792732471   -1.00183828284502   10.85778301148107
O        -1.10911208153010    0.83674622590707   13.70084704234234
O         1.72501987608200   -1.61319214339224    6.22013837651866
O         2.51744174173005    0.81293105568030    6.41161185619898
C         0.86252832049283   -0.06464549438666    9.42262989162607
C        -0.33458981560028    0.43285796316706    8.77546219015817
C        -1.39908554948118    0.89770140585960    9.54234083298780
H        -2.29117223824251    1.26967951884663    9.05513845438462
C        -1.29605699040452    0.87743285272271   10.92122993141820
H        -2.11251825397222    1.23503552463399   11.53323327736334
C        -0.16166324388057    0.40579785639914   11.57745463647160
C         0.94878514279468   -0.07839020300683   10.82744867822990
C         2.15375891337029   -0.57750489753429   11.46351057872469
C         2.15325507975913   -0.55286293020595   12.95298391509243
C         3.28019724977049   -1.01764114482104   13.62735542716881
H         4.10892638512479   -1.37624994996550   13.03372880183255
C         3.33151341872738   -1.01789790212319   15.00663312032066
H         4.21287504899958   -1.38154911048129   15.51781367303176
C         2.24787869655918   -0.54954930791631   15.73832002487228
H         2.28402493263625   -0.54834759651450   16.81969468676468
C         1.12647820745231   -0.08617529970660   15.08167438060691
H         0.26968874013497    0.28388577198203   15.62678312528311
C         1.06352638344639   -0.08102514702840   13.68876095838006
C        -0.16069663382947    0.42688147764985   13.02783028416196
C        -1.16389729327703   -0.38545323421559    3.26856929996652
H        -0.35852850768307   -0.69078802666705    2.57127529514351
H        -2.04570464538769   -0.99645487613102    3.05760960394864
C        -0.70231148004851   -0.61865636768945    4.70843118719624
H        -1.51281039597692   -0.37560721453107    5.40124064384052
H        -0.40243279174082   -1.66008754036871    4.85353178512679
C         0.07767703221854    1.62928508673326    4.82239509558912
H         0.95221631601187    2.24357207618816    5.05303565514557
H        -0.73099657181907    1.87839671407734    5.51495301152176
C        -0.38270357248596    1.86168769660867    3.38222334602105
H        -0.68974460920277    2.90311232501653    3.25390649135967
H         0.46045459302029    1.66359777143740    2.69091693044239
C        -2.04635137546888    1.25948266463884    1.75888262801266
H        -1.31650607245019    1.04420598888580    0.96006960369092
H        -2.34259553046665    2.30514642418724    1.68304017485630
H        -2.92561111475479    0.63600836100264    1.60019167536084

