70
CSD_code = VIDHOH | q = 1 | S = 0 | Stoichiometry = C24H35ClIrN4O5(1+) | MND = 6
C        -0.53046060563371   12.21259261664220   10.32237738626014
H        -1.04076796093061   13.10918908200567    9.97936351080672
H        -0.60187714934732   12.17101357926073   11.40567105418927
H        -1.02208919937977   11.33903808398467    9.90172391079250
C         1.66025652475540   11.00379448538338   10.44449252319267
H         1.63231196644129   11.01185641599754   11.53040430342061
H         2.70323313031753   10.98319168645447   10.13794003618725
H         1.17590767692062   10.09469881191124   10.09423500628078
C         0.93524776082842   12.23265141874093    9.90111781630835
H         1.40506172674414   13.13517717785980   10.30614190975147
C         1.05803068437302   12.32744027233908    8.36416037958882
H         0.37061698823291   13.09538171375238    7.99757496515918
C         2.50605476825931   12.58977041320715    7.88514242760689
H         2.57053694764416   13.39996875030030    7.15421640053429
H         3.20053586065110   12.78587628028719    8.70351842213918
C         1.83279130915014   10.61576728188398    7.15598169078559
C         1.80014383949367    9.31121168985089    6.51906277086896
C         2.83292742885266    8.53456067732713    6.00834385144868
H         3.83995513799335    8.91796483257375    5.98573912253058
C         2.52449070880223    7.26003375292432    5.54882971323258
H         3.30461292404905    6.63589750466103    5.14231753445159
C         1.22414468057587    6.76675173531191    5.63258941647646
H         0.96630113089202    5.76590642036128    5.32819616089670
C         0.24776054971486    7.60735586992388    6.13490046302610
C        -1.19895191430585    7.33459161983041    6.45817471754154
C        -3.18029060285923    6.47561161121254    5.88100489731879
H        -3.60255268669145    5.91607180815123    6.72222500522381
H        -3.60226993022739    6.09755953946389    4.94905393960004
C        -3.38802769997486    8.00952435511267    6.06550771958510
H        -3.81842578119154    8.20992914091162    7.05152203483900
C        -4.26762435527719    8.62988061610227    4.97369550934759
H        -3.84292487908115    8.36557563335378    3.99844223078844
C        -5.68523699566146    8.06533892267677    5.06269356105345
H        -6.12892415369227    8.30549822433377    6.02645381232778
H        -5.69906383227144    6.98633004935421    4.94068907640736
H        -6.30514992675845    8.50144069916391    4.28438848183424
C        -4.31470686280359   10.15183616812231    5.09014089500816
H        -4.76746174151797   10.44127735399447    6.03573392184617
H        -4.91803211546089   10.56150407440082    4.28461379124687
H        -3.32466870023061   10.59494683950717    5.02684108664709
C        -1.13643697049624    8.54806931036997    8.55793201557455
H        -1.14723113486852    8.62987734356989    9.63575632512407
C        -1.25799858444204    7.34301339782020    7.99727615460839
C        -1.26537348323788    6.03262028918877    8.68845950374206
C        -1.86405106172771    4.90164386994119   10.64624778847205
H        -2.35608205010669    4.10053812259415   10.09197213562579
H        -2.40572648999766    5.12419217629671   11.56134166134414
H        -0.84117671491912    4.59480022104653   10.87028568257143
C        -4.43564159371958   12.27106161826088    8.56193734409659
H        -5.44368038938420   11.95081537755920    8.30266535742165
H        -4.17350759889590   13.12883359664637    7.95042995712922
H        -4.44533816060481   12.57656375751174    9.60807667251420
C        -3.45552369796132   11.16377850033637    8.36166369766550
C        -4.72275424354304    9.75456574639322    9.81657100228155
H        -4.69972958949052   10.43937608904529   10.66589964649434
H        -4.59081110988420    8.73477809980830   10.17282695982450
H        -5.68416682584145    9.83922971048997    9.30498473578113
Ir       -0.88363543836748    9.97856844294373    7.11277764717458
N         0.74762134385871   11.05940326534319    7.71800902550096
N         0.54790015754223    8.84095483287747    6.52983700265983
N        -2.00863839308288    8.53093573907477    6.05781380995351
H        -1.78409893943471    8.75954896332021    5.08222693200587
N        -2.39051311640118   11.28842451113602    7.65349896760912
H        -2.30284469705525   12.18770173861777    7.18173003298016
O         2.90524478352020   11.37610368677336    7.23642741460698
O        -1.78030200007158    6.26653089989661    5.80596880472722
O        -0.76657086091252    5.03613719390377    8.23339870430511
O        -1.86292026492471    6.10472540391622    9.88237973918103
O        -3.63718927567773    9.98454774344119    8.93168284088579
Cl       -0.70323825124554   11.29455314325884    5.09820098157818

