44
CSD_code = VIDKAX | q = 0 | S = 0 | Stoichiometry = C23H14MnN3O3 | MND = 8
Mn       11.75556509223115    7.84895750679099    3.99072151846901
O        12.89396176962433    6.11501675758770    1.91482530579272
N         8.81654486872843    9.11354007599881    5.97761101385940
N         9.63635154889522   10.42343121072619    8.14265931317426
N         8.68952360905953    9.56210103878161    8.25605725559617
O         9.53183784732181    6.08800632734752    4.73251785307266
C         8.15934628544709    9.06405460931906    7.12898381663243
C         9.92032940116616    9.83762732960051    5.90041088279601
C        10.20863353863009   10.71345221462268    6.98599874684840
C        12.44811826328644    6.76484254486769    2.74955021209174
C        11.11383352139874   11.85312034325891    6.92110757852135
O        13.53797038927416    6.94301031839893    6.13462309434211
C         6.10540576762352    8.44525125004814    8.34845470173891
H         6.46895313394165    9.02323057979847    9.18393002776355
C         6.88229263416723    8.36951769456612    7.19293531286346
C        10.78166904025749    9.64301431230031    4.74656012126311
C        10.30434350345588    9.33414575354949    3.43364256427232
H         9.25974792755332    9.25370200185306    3.16518467183790
C        10.43119259205491    6.73466677928468    4.44129669820751
C        12.17784376174190    9.89101080092130    4.64415581437453
H        12.81377322326883   10.25749903344722    5.43891522287647
C         4.89354409224229    7.78547767071847    8.40763158420374
H         4.29181856251850    7.84468433549089    9.30255694036666
C        12.55497319400897    9.73411384972769    3.29227417186674
H        13.51921195155437    9.99589454914991    2.87760019988556
C        11.20898743384797   12.62048683240640    5.76017779177812
H        10.59376238263497   12.38023185512538    4.90339154440972
C        12.06669691107247   13.70250663300943    5.71267279394543
H        12.13209870487974   14.29520310777733    4.81188904434037
C        11.39221101222561    9.41385095548794    2.54220749638592
H        11.32694465524443    9.38595343387946    1.46249322931540
C        11.87650476010608   12.19959695908397    8.03551392589505
H        11.78444968052629   11.60663161319000    8.93224675594103
C        12.83904323606360    7.25595693502732    5.27999673436986
C        12.83821514650267   14.02907628786013    6.81664877279778
H        13.51209969589973   14.87163610790392    6.77312642038196
C         4.44785117715422    7.04839587456400    7.32112088512879
H         3.49939656264565    6.53385852951073    7.37094551491858
C        12.73699527808933   13.27874025850694    7.97760689311565
H        13.33111193584881   13.53787635299448    8.84128147494950
C         6.43181524797431    7.62495506075687    6.10351096670682
H         7.04867419444258    7.56058775168954    5.22061214469473
C         5.21902544207004    6.96814111135596    6.17183557572551
H         4.87293102331628    6.38844545172513    5.32881741246580

