63
CSD_code = VIDMIH | q = 1 | S = 0 | Stoichiometry = C24H31CoN3O4(1+) | MND = 6
Co        6.63226379432908    4.74817079428291    8.75824313790747
O         5.83164479783947    3.54507781116776    7.30886967385103
N         7.61235567887090    3.37490886284630    9.51809499202977
C         7.14452368264017    2.74487576731287   10.58853470007293
N         8.35282981213087    5.08355191626588    7.74278523300202
H         8.15763198034215    5.40018676232006    6.78802600716283
O         4.83353023075435    5.43721961946523    6.74320724960292
C         7.90191781416202    1.77844543289892   11.23285971530141
H         7.51914368984745    1.27526692981914   12.10584839004587
N         5.32164119541262    4.37700931612002   10.29109645954927
H         4.35828693648282    4.26004436477373    9.97983449940079
O         7.05805896959658    7.05364563642510    6.27669822921769
C         9.15595177021153    1.47235552408640   10.72508073754374
H         9.77294892417618    0.73492137462233   11.21328604743757
O         6.19406555132462    8.34220601351679    7.90941735803710
C         9.60358005348843    2.10310037383093    9.57144507354084
H        10.55884382323063    1.85471307467585    9.13833296984015
C         8.79123892653245    3.05804865664284    8.98556440620694
C         9.04929741977120    3.78743143062046    7.69756964608950
H        10.12014036706203    3.90482688644637    7.49890073157296
H         8.61734314852796    3.18287589739148    6.89165186057222
C         9.18069338171152    6.14430467086406    8.38366509680847
H        10.22442955770986    5.82255844941333    8.45347983600711
H         9.15197785561832    7.04029127139804    7.75714473705441
C         8.61707590648998    6.46353189715301    9.73692816588223
C         9.20879299611789    7.26610044322727   10.70338120734433
H        10.18118094197522    7.70167784973277   10.52637285286959
C         8.54477573226142    7.50341920790026   11.89687796169001
H         9.00872858969625    8.12435396228070   12.64703344939437
C         7.29203348880794    6.96058208203527   12.13973729518021
H         6.78301085279285    7.16175577538344   13.07015221615181
C         6.70022195365528    6.15971456510702   11.17513446671233
C         7.37047341431936    5.92460215817313    9.98905556452041
C         5.34172212501588    5.52478445913628   11.23720173585260
H         5.07343143965872    5.20364338473964   12.24940806522398
H         4.59906162421734    6.25849772071276   10.91027931758082
C         5.73054424674193    3.11088423730213   10.94212004292307
H         5.09187404073193    2.29702841589864   10.58040268756069
H         5.60824405989132    3.17218030642088   12.02873677128027
C         5.10968688437818    4.18674366463333    6.54270531660350
C         5.51153442128024    6.11086495011360    7.84633140940940
H         4.71298925943285    6.57746798465299    8.43502744804297
C         6.33099482604450    7.20856756969721    7.23932878080674
C         6.99035719057307    9.47170488368804    7.53010959549480
H         7.75992140403184    9.14180833575064    6.82507740867814
H         6.32990912960312   10.18122916293587    7.02291789542987
C         7.59565970592229   10.09606601363380    8.77528454189671
H         8.19543665400848   10.95620549501256    8.49370787714864
H         8.22127362107593    9.37689369508569    9.29840393071863
H         6.80775411513740   10.41990049954678    9.44908004465182
C         4.53304780383036    3.58602473780907    5.27706808521240
C         5.61594368214726    3.82186406989042    4.20951096125840
H         5.25146266431727    3.47872590223690    3.24507592253379
H         6.52166261140921    3.27018079322853    4.45221211719269
H         5.85633312173595    4.87999948290122    4.13255236630406
C         3.24059985308911    4.29482172856832    4.87542068412527
H         2.85768712885827    3.85793097632683    3.95713702561573
H         3.41679760770415    5.35363999083162    4.70896118195537
H         2.48322332041914    4.18695351727821    5.64823708303691
C         4.29818559753674    2.08801173763493    5.47249763384900
H         4.01059459839155    1.63559135014251    4.52788837211130
H         3.50196840383594    1.91525504195767    6.19281019350761
H         5.20106562108458    1.60125511403309    5.83239553639459

