68
CSD_code = VIDPIK | q = 0 | S = 0 | Stoichiometry = C36H22F4IrN5 | MND = 6
C        14.00036335319374    5.32562471223236    8.89450251033353
C        15.03541628619443    5.91437563733217    9.61566626504849
H        15.01471985756866    5.94146821868921   10.69487819809255
C        16.11825744151050    6.47355078105436    8.96591723692337
C        16.22391731002642    6.48527106013050    7.58644291324829
H        17.06832031275213    6.93200240020579    7.08872768186006
C        15.20537146717589    5.89818574692972    6.86454938161146
C        14.09765821965405    5.31278009859310    7.47838612121993
C        12.99163956083421    4.65200195291584    6.79315452395292
C        12.89414486539320    4.44472073175838    5.41645557425805
H        13.66152505500781    4.80584694634067    4.75488156448117
C        11.80979424597626    3.76451383685120    4.89655462112442
H        11.72940597091711    3.60044955411166    3.83299568724813
C        10.83833142500279    3.28753970475147    5.76436669310187
H         9.98380369609100    2.73764517163926    5.40521681380226
C        10.98916084842260    3.52793526264969    7.11622714457729
H        10.25979995246172    3.15762022684647    7.82262911458283
C        12.99434937573585    2.87470128824614   10.14014520803650
C        13.25630447369677    1.76848081804614    9.34049976705840
H        13.13639894312321    1.80724774112011    8.26878392021706
C        13.68047962180488    0.58318568482459    9.90859992048530
C        13.86387963814043    0.44144838766442   11.27237814160204
H        14.19298448271311   -0.48928522957877   11.70354715426978
C        13.60771366393183    1.53906110037897   12.06687182684547
C        13.17753283743146    2.75774902347989   11.53990598793675
C        12.89038403336888    3.96645624230048   12.29884812210505
C        12.99098158016273    4.10346701357634   13.68450007686527
H        13.28436262861281    3.26658152757359   14.29299602225480
C        12.70904838689571    5.31636730927084   14.28099283731187
H        12.78169483165426    5.42877740641018   15.35166583036071
C        12.33569841738619    6.38582238453297   13.47918765582739
H        12.11492480908195    7.35372829049359   13.89940119370654
C        12.24682276495296    6.18433936683266   12.11644402320037
H        11.95965017037774    6.99956521799339   11.46601337257693
C        11.60049762898860    7.63847035927524    8.60797417071514
H        12.66681688857300    7.67062506890397    8.42644292381953
C        10.80131951626258    8.72809901290609    8.32484181418184
H        11.23189945218343    9.62608498631018    7.91289634252288
C         9.43624096115570    8.63452487088003    8.58534924359057
H         8.78143873959265    9.46769038189378    8.37718093104470
C         8.93719400151915    7.46559108065020    9.11121437874015
H         7.88722955727243    7.35079219614695    9.32702199069365
C         9.80903757799053    6.39850338489767    9.37097787127607
C         9.37382377509036    5.14834623038790    9.91076526144186
C         8.13307597129417    4.65593390805664   10.32575608956458
H         7.19394839239638    5.17121459427300   10.32425914000683
C         8.40531909376730    3.34959044820422   10.74198488402376
C         7.50793571493193    2.33689197205401   11.26819235666855
C         6.14504888539603    2.57966523662621   11.43122616415225
H         5.73290167948838    3.54242379488152   11.16661844861939
C         5.31335860899448    1.59508803579394   11.92997198382980
H         4.25793307143893    1.79520893983594   12.05168223023352
C         5.82569983138250    0.35510504929288   12.27322778482473
H         5.17204077942376   -0.41218511953780   12.66231185911739
C         7.17972401331614    0.10442567696094   12.11496930480924
H         7.58338674215744   -0.86205041788083   12.38148989396507
C         8.01476701846022    1.08451365129104   11.61745255882775
H         9.07116376866278    0.90607170734772   11.48725786149903
F        17.10423461419547    7.04157418840896    9.69097006756807
F        15.32546538024758    5.93429538737809    5.51617346296300
F        13.92988348689741   -0.47546361810242    9.11226684181064
F        13.79868427833094    1.37972258857960   13.39565638895240
Ir       12.22127218481698    4.64359491655428    9.57729471080202
N        12.02070101589175    4.19943509423339    7.62373274009509
N        12.50533511020673    5.01619187651907   11.53170301784747
N        11.13100503623648    6.50545507603304    9.11585410374053
N        10.29124587103414    4.15706573252742   10.08799137816824
N         9.72183082515416    3.09277809221667   10.57955869375587

