25
CSD_code = VIDROP | q = 0 | S = 0 | Stoichiometry = C10H8F2N2O2W | MND = 6
W         1.57080936414470    5.02686111074898    2.53665653547414
F         0.73426785438344    3.25181779191124    2.60796412565794
F         1.14519867235082    6.90059242381505    2.93904569145792
O         2.90603945340502    4.78353552324410    3.54853528815278
O         1.93520093361638    5.13606468232507    0.88705815292577
N         0.15180555372063    5.00809875529660    4.43750076843573
N        -0.72537865033402    5.33364066315017    2.02880700741065
C        -1.17919596330121    5.14392720739523    4.34673119457827
C        -1.99082790101555    5.08331222914719    5.47749278952970
C        -1.40074138188932    4.87747186896655    6.71485493938474
C        -0.02384079773055    4.73895696837514    6.79267587086594
C         0.71618755805090    4.81189365441515    5.61960393560034
C        -1.67832778074990    5.35250932146381    2.97207982320868
C        -3.01699130516338    5.55525433356612    2.64349147717798
C        -3.35936703537450    5.73713541580891    1.31260933961249
C        -2.36352020419925    5.71303188605260    0.34881061231108
C        -1.05194510060959    5.50797884751530    0.75702391782129
H        -3.06048688418532    5.19071444278894    5.40094872004246
H        -2.01213651699547    4.82573928249446    7.60337232296183
H         0.46735543975545    4.57702170182156    7.73839644962872
H         1.79751439825444    4.71269082322627    5.59535966295342
H        -3.77982334355424    5.57383474006465    3.40475045196293
H        -4.39103137818535    5.89507414549870    1.03606030843132
H        -2.59493623796286    5.85035448214361   -0.69499558890229
H        -0.21512874643051    5.47728769876476    0.06526620331608

