77
CSD_code = VIDRAC | q = 0 | S = 0 | Stoichiometry = C44H27N5Ni | MND = 4
Ni        7.48750216867167    3.54365053322105   11.03201202500702
N         7.91082289867983    4.86451174393950    9.67012058124025
N         6.86252377556244    2.35575079746418    9.66230586075172
N         7.00058121076817    2.21940786598334   12.38364172232964
N         8.11942386265574    4.73086629807990   12.40953053671033
N         6.02397313030868   -0.90254256127570    8.48822505146006
H         5.69726812681971   -1.30114948300956    7.62007756659623
C         8.67192973510400    5.98995577728359    9.82703043946649
C         8.75036241596051    6.71081962723894    8.58947275710003
H         9.30680227452607    7.61505054796053    8.43992614596654
C         7.97976409147898    6.04592513080440    7.70036931319119
H         7.76727623900165    6.30568913069170    6.68201385627689
C         7.49433176052731    4.87121013329277    8.36651505556454
C         6.79663102509859    3.85517658111867    7.72445104806273
C         6.56742626505547    2.62873805555356    8.34846365918651
C         6.15594423035751    1.45185275148452    7.66137974770008
H         5.87291358484159    1.40047452438369    6.62920432904556
C         6.26968628256236    0.43340135712407    8.56478017302865
C         6.68616736704621    1.02241742851350    9.80766520742858
C         6.73323467344122    0.24568291014452   10.96267867685707
C         6.70171876900915    0.90052163302903   12.20848231694151
C         6.20685876713745    0.33972436359237   13.42306999658536
H         5.82361075071040   -0.65442030230966   13.53982200023223
C         6.22951835331244    1.33024416671485   14.35136238747337
H         5.93047365496554    1.28154636913896   15.38011775354669
C         6.76494294851243    2.48519565363921   13.70634899323692
C         7.15482807175963    3.63785736358763   14.38464714338581
C         7.87422215691816    4.64664114261391   13.75527758038928
C         8.49388792811168    5.74115956894608   14.43918481555541
H         8.43006677605459    5.92204646009735   15.49413928219986
C         9.15527626932564    6.46241066304581   13.50429410840279
H         9.73586868680622    7.35431465224044   13.63828218302556
C         8.88891434191713    5.84335884732857   12.24026328224388
C         9.22279155413095    6.43490334412970   11.02178377053387
C         6.38070944538086    4.00927127885934    6.31635008988296
C         7.31622073576747    4.15307654260215    5.29663082226685
H         8.36927939969128    4.14465711941475    5.53824434477458
C         6.90409966641327    4.28595851147454    3.98286596438940
H         7.63906295734435    4.39505816418426    3.19842020022935
C         5.55481464664287    4.27675610745463    3.67125699716354
H         5.23471479604056    4.38326054645190    2.64519271130310
C         4.61763361056344    4.12603316522649    4.67982406046000
H         3.56384151727798    4.11515716719429    4.44152098714695
C         5.02713446442299    3.98855958439569    5.99341958068606
H         4.29884718926281    3.87222781517288    6.78292495699819
C         6.70176277321034   -1.19005178457304   10.78443758443128
C         6.31460216555907   -1.73359208936459    9.53711872882458
C         6.22852398804089   -3.11735832672526    9.36874633433816
H         5.90151624234950   -3.50912749644324    8.41562048773292
C         6.57653756424204   -3.96781509937789   10.39290833945147
H         6.50982112835105   -5.03608253833211   10.25321431912758
C         7.04944518526430   -3.44730230240197   11.59328098489665
H         7.37454868148258   -4.11408521780839   12.37723354335741
C         7.11310228307718   -2.08484490069463   11.78026785442237
H         7.52208898723148   -1.69166741671631   12.69691270960149
C         6.86461609061469    3.73851220566837   15.82914224937888
C         5.54820233945069    3.86101786532111   16.26255189638040
H         4.75225750438595    3.88599666361740   15.53241360243178
C         5.26234118295154    3.96061569257569   17.61194553281257
H         4.23718232014962    4.06130447720756   17.93765479210509
C         6.28616679870307    3.93099782400410   18.54407549764078
H         6.06214261533413    4.00827577073799   19.59781197811906
C         7.59796583629990    3.79871831862118   18.12059797870519
H         8.39928080058801    3.76831961492194   18.84466109108647
C         7.88736173141496    3.70377201173511   16.77129721439020
H         8.90932610563078    3.58804282789826   16.44029475600194
C        10.09916869395642    7.62352414858822   11.03599433111658
C        11.43099981294652    7.48981537567498   11.41651414263842
H        11.80567712798617    6.51429533863982   11.69092580715157
C        12.26819812017644    8.59026422024097   11.43451918924187
H        13.30203246447291    8.47400602639143   11.72585710225483
C        11.78349579058155    9.83862622538353   11.08149839260443
H        12.43737339973178   10.69814910292337   11.09665555209744
C        10.45595279432520    9.98198249368939   10.71431364328783
H        10.07125762119857   10.95567275150139   10.44724892826789
C         9.61741554951653    8.88208521230183   10.69081319912855
H         8.57773372483167    8.99602392657327   10.41958215494905

