29
CSD_code = VIDROQ | q = 0 | S = 0 | Stoichiometry = C9H17AuClN | MND = 2
Au       20.30787780491021    0.01004894819291    1.74664980978595
Cl       22.22603851281809   -0.99951961526431    1.31967473007786
N        17.71629852287428    1.47867745235958    2.27816477984982
C        18.69166693032482    0.88332434074771    2.09062739134822
C        16.49424933382704    2.14110233000756    2.49187593621838
C        15.38718914625812    1.09750165837813    2.26771173689913
H        15.38673539337210    0.75055796172736    1.23705050565088
H        14.41864139774708    1.53675454520937    2.48994990708328
H        15.53745179293194    0.23966995557075    2.91948754386224
C        16.45828498482470    2.61075486149983    3.94705072283400
H        16.41084247915677    1.74962902589320    4.61085892894419
H        15.57873725875405    3.22596401516568    4.11176588996620
H        17.34691824835791    3.18092434103440    4.20035700347419
C        16.32923736327738    3.25181198725235    1.43142911660890
H        15.28535269910586    3.57035479541286    1.47392691194908
H        16.47822467493490    2.76553204576449    0.46317066789701
C        17.20518362055298    4.52551138043248    1.44503395193235
C        18.69134884737445    4.22152846664060    1.63799365293298
H        19.26679478026402    5.13769550810955    1.52700738016531
H        19.04366062397575    3.50994873573009    0.89453737694852
H        18.89969005770850    3.81717573884465    2.62503459137337
C        17.02300399561734    5.17878538232943    0.06690706495296
H        17.57602372557452    6.11307626996646    0.01587311983671
H        15.97364842295614    5.39401834351319   -0.12243184108984
H        17.38917422873932    4.52703338168237   -0.72313499217030
C        16.73917910169883    5.53241973791478    2.50124113893806
H        16.95186051751264    5.19808872459773    3.51069465118105
H        15.67024417579601    5.71494913384479    2.41383033258482
H        17.25384135875425    6.47908054744199    2.35356198996463

