59
CSD_code = VIDSOR | q = 1 | S = 0 | Stoichiometry = C22H33N2PdS(1+) | MND = 5
Pd        9.48497510351671   12.47053529912938   11.00627995487478
S         8.70421915731777   10.55008350781186    9.84464556093857
N         6.64436137553702   13.06353356788119   10.12359987323402
N         6.79774528673683   13.42864921626811   12.23282204402009
C         7.50983886783485   13.04239609281285   11.15247119649354
C         5.41127882273319   13.49221794613039   10.51803650081221
H         4.58764751223848   13.60146615198281    9.84414777246567
C         5.48796859263822   13.73406318162816   11.86876769808371
C         4.58218652452854   14.17344063391893   12.86268905744695
H         3.57467590938810   14.41998421490403   12.57160477763759
C         5.01120425104341   14.26282665101725   14.14829454302664
H         4.34519544409332   14.59284759425684   14.92827800719716
C         6.34584834783528   13.90451494298792   14.48953390691123
H         6.66154330718072   13.95557271348973   15.51806977846843
C         7.21055729856383   13.49319909948669   13.53551142612364
H         8.23160907661165   13.17671827132788   13.72329091095136
C         7.00467009243214   12.63631732216506    8.78812559862981
H         6.11796235760791   12.77437592023745    8.15693274448497
C         8.11399840283327   13.55008914098248    8.26296551068093
H         7.76480463177475   14.58064356510833    8.26917659640232
H         8.37847727525179   13.28805522670317    7.24297240343524
H         9.00782405044441   13.48738064465511    8.90960080874050
C         7.34426894835725   11.12509616615811    8.72399079879350
H         7.71999107648349   10.93529725843532    7.71707389943012
C         6.10547638946775   10.22822572509041    8.94617713147913
H         5.28961064276175   10.65418489136536    8.35022003352294
C         6.37189007418878    8.81693817920382    8.42661552378524
H         7.14473526493994    8.33323731283830    9.01737481267179
H         6.67654299073206    8.83110410586199    7.38307782649125
H         5.46699876504555    8.22062403902472    8.50011329184527
C         5.65574637159974   10.15385247855364   10.40612587218581
H         4.95389406501944    9.33334933359500   10.52602540267822
H         5.15442292019741   11.06132898448622   10.72831968104590
H         6.50438035186489    9.96786114838880   11.06201207239984
C        10.11999994159970   10.10510291715173    8.74039146795485
H        10.88515605628382    9.87026763870365    9.48882952079704
C         9.84941541076621    8.86133126496047    7.90965153095140
H         9.08230778887520    9.06522244433776    7.16071769282050
H         9.49938211556089    8.04851084050132    8.54710159583076
C        11.14137535634601    8.44386183685632    7.20321254629703
H        11.88992200295279    8.17075690265494    7.94939965740850
H        10.94726924529125    7.56431295345568    6.58928014875534
C        11.67724232688971    9.57789867495858    6.33442166809470
H        12.61475084328765    9.27305553837933    5.86952057561277
H        10.96505048798213    9.79355528618098    5.53485405257655
C        11.90150116689496   10.83511195506397    7.16967292177151
H        12.24878926979706   11.64992117912153    6.53296643701734
H        12.67123434200415   10.64368671857202    7.92000828082319
C        10.60109798555119   11.24654707747714    7.86103569390923
H        10.76202705445700   12.15108729242365    8.46357916789151
H         9.85564968179620   11.46486780323446    7.09363619701765
C        10.42338439093716   14.11275128347079   11.92771161511520
H        10.70597544431011   14.71599523824005   11.06221557924209
H        10.01179774915003   14.68493547085193   12.75209094546818
C        11.16854538532741   12.94841568977315   12.20579868020536
H        11.18227864604603   12.53598217941160   13.21574215061589
C        11.62666162706217   12.18697648732735   11.12664892463272
H        11.99431242388817   12.71728422686457   10.24518419338367
H        12.13162370814888   11.24765057214906   11.33398573841458

