74
CSD_code = VIDTEI | q = 1 | S = 0 | Stoichiometry = C30H40N2RhS(1+) | MND = 6
Rh        1.29386260337769    3.03729694774274    2.25336719757019
S         2.52039581775110    2.46432180721373    4.28842297904538
N         3.93221191541863    2.01847589350687    1.53794562620353
N         2.48664305392527    0.67527035191239    0.67106373807523
C         2.60668417244158    1.82377477442701    1.38358543448781
C         4.65353495217419    1.03458071918527    0.92610881370002
H         5.72300296222404    1.01500233186809    0.91849156455289
C         3.75028080718729    0.17937468876199    0.35678104017166
C         3.88710761026693   -0.99685516084925   -0.42866873797440
H         4.88175752672629   -1.33415218321340   -0.66859711421898
C         2.77931635291474   -1.63925952411774   -0.85141466192072
H         2.84864911649657   -2.52681119460659   -1.45952058796010
C         1.47272174782904   -1.17342600173248   -0.48225630824973
C         0.31622173497287   -1.86432159770376   -0.86371425050767
H         0.41999655974972   -2.75078400186080   -1.47028118054558
C        -0.92930098168602   -1.43161307674647   -0.47010401091376
H        -1.81118991976845   -1.97430205516820   -0.77127321006794
C        -1.05120166426009   -0.29897606472210    0.32899675666495
H        -2.02713658870009    0.02835410494765    0.65182030615081
C         0.06993944623385    0.40407366099057    0.71466483316174
H        -0.02479922793064    1.28946021417355    1.34286598103604
C         1.33390959242949   -0.01065050978703    0.30213091103467
C         4.45987115323735    3.06153541027862    2.37569226997394
H         3.90520948197421    3.98396548219772    2.16992653551771
H         5.51684953231939    3.20996178154832    2.14166343281269
C         4.30481796154799    2.70534909233059    3.86037447111023
H         4.77815789873371    1.73872941162310    4.05053589145677
C         4.93661167032394    3.76872770614749    4.77180328360349
H         5.98281853082458    3.87382580488332    4.46062696400617
C         4.24716199856699    5.12391181544370    4.63497712382230
H         4.42076690226653    5.56728932995116    3.65833538631374
H         4.63353160418909    5.80955755232825    5.38359344535893
H         3.17611190940251    5.01777835360649    4.79145837223659
C         4.91830735439501    3.30870091936532    6.22738362814856
H         5.44339704813490    2.36360587073418    6.34532497930932
H         3.89651754123075    3.19018957917457    6.57899297271076
H         5.41159548978781    4.04521639146232    6.85496485517261
C         2.41047926016817    0.63029384985224    4.44261024810640
H         2.96650421837835    0.20089455817652    3.60360785533222
C         2.99235287380309    0.14831457414209    5.76177185057472
H         4.04483267358586    0.42406225546557    5.84732676378341
H         2.45318452371602    0.61859291467209    6.58636449616056
C         2.85147040195690   -1.37176294005512    5.85297646475253
H         3.43598025847810   -1.83859533146321    5.05608695554008
H         3.25465067942219   -1.71442751637842    6.80625913229642
C         1.39008870710985   -1.79068870397662    5.72384522947232
H         0.82194700820274   -1.38907189348523    6.56511175249904
H         1.31411249836444   -2.87773576771247    5.75836580788764
C         0.79587455878619   -1.27054191826594    4.41773265899025
H         1.31167671419033   -1.72735342216611    3.56898310764698
H        -0.25844277957227   -1.54113452240658    4.35119065153085
C         0.94123206756984    0.24678475173536    4.34513977953921
H         0.39781568812889    0.70553887220295    5.17475521044814
H         0.51929193898857    0.62634199080893    3.40684124160792
C         0.34227769590062    3.73038195591589    0.41556678916208
H         0.46773849144706    2.98440595972559   -0.36730032411796
C         1.44976396336302    4.52379677637739    0.69467594043742
H         2.34904873709809    4.34444616391851    0.10321540157892
C         1.40911910792623    5.89764196732611    1.31697013902673
H         1.12917415937508    6.61879300873138    0.54270427082212
H         2.41914203764011    6.16080456886345    1.64189468515670
C         0.44913146672706    6.02064347591457    2.51516752824738
H         0.80179947458170    6.82763342023848    3.15871837771662
H        -0.55028310350379    6.29117930664368    2.17625111936216
C         0.36995320264295    4.74780980653843    3.32248101762793
H         0.84689081994409    4.79134794782282    4.29981236358566
C        -0.56393810612890    3.76390309019991    3.11101859583988
H        -0.78510114162157    3.08534710881317    3.93861406851118
C        -1.62552771966144    3.79319962917223    2.03703413340328
H        -2.40477726296508    4.50169429482537    2.33412402983207
H        -2.09524428001103    2.80801495966168    1.98944875632678
C        -1.08998676547841    4.16499611052785    0.63913234240267
H        -1.72188275637368    3.68662163887919   -0.11033833748313
H        -1.15988297886021    5.24074843347323    0.47777116534582

