131
CSD_code = VIDVUA | q = 0 | S = 0 | Stoichiometry = C62H63N2NiO2P | MND = 4
Ni       11.22053356153972    4.78491037443789   20.16984826174450
P         9.84105029395780    4.47614167267309   18.53281150493232
O        12.25225413705612    5.93623361886345   19.04400640117674
O        15.73510475827299    5.46494676434749   16.21205170776249
N        12.18768583253796    5.37301017465637   21.77040685810729
N        15.92815417827890    4.45003083829810   13.82815229789908
C        10.52929360128094    3.28487912014867   21.01767500529971
C         9.43468765601432    3.09361190107077   21.85113909750017
H         8.78205683147452    3.91716708939992   22.10145509808673
C         9.16039679723927    1.83974877148663   22.37395754842468
H         8.30891281814880    1.71040781899668   23.02711212580964
C         9.96109463784008    0.75733210594354   22.05814619551544
H         9.74023980119210   -0.21994702315187   22.46298000100041
C        11.04649340763880    0.93076563869624   21.21599277600573
H        11.67484564649378    0.08857045251498   20.95924013743745
C        11.32595783219480    2.18435546360865   20.69716472757963
H        12.18138059041899    2.29962039047813   20.03134307051544
C        10.53760371048201    3.54250587385557   17.13125227802184
C         9.75041434062429    2.88587388092083   16.18951257367489
H         8.67508316714172    2.85820307280049   16.30175879523524
C        10.34581992150547    2.24432618138291   15.11873188596896
H         9.73034038273413    1.74180806503088   14.38614002985104
C        11.72493540672873    2.23853954679945   14.98463862923739
H        12.18032882778465    1.73538266221327   14.14429747311774
C        12.51385018451376    2.86572399312597   15.93348453819633
H        13.58989541618331    2.84569351994817   15.84759471325001
C        11.92134157466377    3.51551287449281   16.99988708748773
H        12.53199203847144    4.01285808428459   17.74017433568089
C         8.25310334545589    3.63459585742938   18.82595235377978
C         8.23205000142037    2.24661179759115   18.93538610314951
H         9.14290481385259    1.68712085680095   18.77241591226219
C         7.05982404188987    1.59016521117652   19.25525123535306
H         7.05140013112200    0.51309515042768   19.33471095972290
C         5.89924007676411    2.31279906838351   19.48291878900898
H         4.98324145446044    1.79946118252534   19.73565193543696
C         5.91757285628964    3.69428440110455   19.39353092970959
H         5.01601735165849    4.26004672305270   19.57908828681685
C         7.09025838509530    4.35470753625413   19.07229338936555
H         7.10500539312390    5.43423525203773   19.01150629612665
C         9.29127261798424    6.02927105256703   17.74060576853271
C         9.48634524566327    7.22568251327023   18.42051963727649
H        10.00064077097212    7.21195873272359   19.37274001499703
C         9.05378336135644    8.42135654949674   17.87504625190788
H         9.21427305291800    9.34821465907606   18.40693297330535
C         8.41942708594668    8.42974570436821   16.64427336976815
H         8.08165974292137    9.36138076259062   16.21446930250282
C         8.22310167715079    7.23989877735599   15.96130604031739
H         7.73186977945930    7.24568186215596   14.99865260203579
C         8.65636854730037    6.04348642509709   16.50385458589212
H         8.50730066474805    5.12272851389129   15.96010345477492
C        13.41519468020182    6.41040043728172   19.26058864477442
C        13.95975250636351    6.55638747871054   20.57593931810995
C        15.21296271010594    7.17179213876631   20.74856705286551
H        15.59145924534982    7.29639150010776   21.75461890490499
C        15.95639457161499    7.57946333186359   19.67458136039524
H        16.92149046404613    8.04085565762567   19.81830132588658
C        15.46894372159623    7.37908883757000   18.37950715714908
H        16.07152475438674    7.67700331179278   17.53445910416178
C        14.23333451252981    6.82317824734667   18.15653717904721
C        13.72274835887411    6.57196894023082   16.79684090365545
C        14.50446827111154    5.86482956606447   15.86487010938768
C        13.97080992796439    5.56951202651974   14.59304781355623
C        12.67047926624868    5.98001347904382   14.27703234929885
H        12.27121253216109    5.73928407987201   13.30171695127297
C        11.91595432565359    6.67882584442239   15.18840650610026
H        10.91629033543812    7.00079005405709   14.93999403540793
C        12.44459539908939    6.97113524110894   16.43868717111195
H        11.85304272272663    7.52485222625871   17.14988719425168
C        13.25286201283847    6.11017720500668   21.72426403780441
H        13.67302686742219    6.44025114693769   22.67996733560443
C        11.65190598060840    5.12073789336050   23.05859964162027
C        10.46292575111251    5.77308439892969   23.42480695917333
C         9.96636724213115    5.58296854543444   24.70364506283873
H         9.06412912003220    6.08666200657738   25.01218435174768
C        10.61880754222745    4.75622497665040   25.60003636579977
H        10.22492549737744    4.62459098286049   26.59716248323724
C        11.76748790653022    4.09375737084692   25.21789525201725
H        12.26107777331189    3.44194239945471   25.92229690385947
C        12.30356281384846    4.26014081602830   23.94791995846144
C         9.77257556637053    6.67047858549537   22.42214254219607
H         9.92072275267869    6.20515780126658   21.42129662776341
C         8.26806631228280    6.80776473232711   22.64594561990533
H         7.80020810316576    5.83519130173785   22.77880998182724
H         7.81270808070936    7.28877328416673   21.78211177119413
H         8.05553911667100    7.41995976875610   23.51986044184644
C        10.42049640808374    8.05907332959857   22.41646532883234
H        10.36106947120352    8.50321441197634   23.40879787083092
H         9.90557250998433    8.71287284986318   21.71485841308940
H        11.46741592486418    8.00345286101946   22.12752996519336
C        13.54648044598494    3.49788622903373   23.54771193743381
H        13.71451357620126    3.64011944747989   22.47548531572881
C        13.36840685063850    1.99764278446133   23.79160101943607
H        13.32550519092260    1.77350610460784   24.85431659202887
H        14.20642319842933    1.45117269277080   23.36382846700295
H        12.45065388805308    1.64793579284767   23.32564317233010
C        14.77311419953411    4.01425639183401   24.30465873390476
H        14.94467247139443    5.06844951124378   24.09866526198079
H        15.65927789168374    3.45906691012070   24.00445550110053
H        14.63841988345598    3.89539340269613   25.37745836992035
C        14.73860070511625    4.84641402310827   13.60908414305832
H        14.23684077326888    4.67058437704338   12.64869956647938
C        16.71072180544239    3.74547772281492   12.91823796347279
C        16.49285610348758    2.38131460198292   12.68019749463194
C        17.37298400688891    1.71312046470986   11.84293955056119
H        17.23638860091426    0.65997722316177   11.65431999004249
C        18.42321260196760    2.37485704458900   11.23518134920670
H        19.08695327675099    1.83843906975746   10.57319716740376
C        18.62855407106897    3.71997334946164   11.47951823223629
H        19.45273396466064    4.22563166764137   11.00172688927745
C        17.79256617819217    4.41832210522152   12.33435905189961
C        15.37482932194328    1.65395887793849   13.39373612859178
H        14.56969771790572    2.36878049100539   13.59511068712424
C        14.77920700467578    0.50782169071388   12.57754820311079
H        14.51422458635237    0.84376543003166   11.57702566034077
H        13.88130922690664    0.13489251665985   13.06730617889978
H        15.47698393766343   -0.32136552723795   12.49389794659531
C        15.89702140574643    1.13890871813784   14.73940261820178
H        15.10577194763622    0.62722147958143   15.28425941980267
H        16.26190080739841    1.96486762366080   15.34669046865264
H        16.71795325814361    0.44257515094162   14.58140439845200
C        17.97227480797266    5.89347968094841   12.61073044165351
H        17.53411856292249    6.10157079062831   13.59396408651758
C        17.20283759220244    6.70772329774052   11.56547609757928
H        17.58007991659094    6.49238469926916   10.56765389788179
H        17.31386558862926    7.77280571687437   11.75778053810981
H        16.14290719644757    6.46248176969299   11.59223043514584
C        19.43783459492693    6.32226861285649   12.64768282202274
H        20.01126847625676    5.66537832424046   13.29766657340680
H        19.51362326330777    7.33811892240790   13.02983788662376
H        19.87997405350007    6.30534474800754   11.65460778990181
H        16.12171824013872    4.98378548559223   15.43645660940227

