100
CSD_code = VIDVOU | q = 0 | S = 0 | Stoichiometry = C49H46NNiO2P | MND = 4
Ni       10.72836697401110    0.88626655721733   18.37320960442947
P        10.73528726449865   -1.10141567334672   17.51878581823460
N        10.72992973284120    2.69523708418486   19.09754287163603
O         9.32034322591837    1.36721853957364   17.11972109687405
O         9.05216410563036    0.84826893389604   14.61044479314025
H         9.32254136317971    1.13434793726772   15.52055290643031
C        11.84024699233764    0.26490651570276   19.73459791935572
C        11.16439381698714   -0.31474529740261   20.80806141187576
H        10.07934895639576   -0.37668933824318   20.80937646639575
C        11.85649795090919   -0.82806458582311   21.89231294132125
H        11.31298737757874   -1.27713574061631   22.71216710720703
C        13.23874161083393   -0.77350320158132   21.92226739313958
H        13.78013071720257   -1.17794454694927   22.76520560409002
C        13.92049117262252   -0.20250235872271   20.86373738982083
H        15.00040804720502   -0.15623012772733   20.87764420136475
C        13.22954662049789    0.30312149503985   19.77414356600297
H        13.79174030062930    0.72754635830655   18.95454967992210
C        11.90071994807652    3.21422321131908   19.70771914893702
C        11.92623738424362    3.53819641640814   21.06685610646075
C        13.08578388147496    4.09681090004141   21.58832627793494
H        13.12451750256079    4.36251002489589   22.63343351079288
C        14.18711914620049    4.32956962794053   20.78999387421757
H        15.07488529027002    4.77745883083821   21.21160774526907
C        14.15761957734428    3.98550785025118   19.45068109027925
H        15.02724878946486    4.16799765867055   18.83978488024991
C        13.02443084814415    3.41969418640261   18.89046324586479
C        10.73948492233860    3.27897147969946   21.96683804402902
H        10.00061025884329    2.69338772228432   21.41024221397349
C        11.14841910171195    2.46111381504835   23.19365618629946
H        11.68734163766666    1.56815767818419   22.88744900881486
H        10.26280931569404    2.16024795121329   23.74962351103605
H        11.78414654444391    3.04001702290932   23.85849395571766
C        10.09069001455632    4.59542285703272   22.40414825599159
H        10.79970156518716    5.20278360063386   22.96218301596118
H         9.23113410090043    4.39645562384698   23.04072563131036
H         9.75402785404101    5.17184034977892   21.54520585568760
C        12.95628009663523    3.03726487113280   17.42814688634284
H        12.31659880187280    2.12730937609806   17.35952201728129
C        14.31362290860027    2.69637669112346   16.81598645333304
H        14.91025885184548    3.59359126295534   16.66553518451873
H        14.17055290464133    2.22324798749115   15.84639388066375
H        14.87153747660740    2.01100387312130   17.44980983372155
C        12.29305810388802    4.15409548292184   16.61543316149587
H        12.86495728208845    5.07573478068349   16.71028045614967
H        11.27877972930243    4.34385852781871   16.95878073671123
H        12.24991286447618    3.87944597696625   15.56340957368652
C         9.76355711507485    3.53218573540671   18.91073770950751
H         9.88933748604460    4.54004998750781   19.31926101383901
C         8.55072569222463    3.33821263755047   18.18758304206173
C         8.38747938926368    2.24251499524094   17.28709531629647
C         7.17422098309147    2.15712256511580   16.53602348750919
C         6.22575048983504    3.15127938270743   16.69208946834299
H         5.32383496567533    3.10637266697542   16.09900026572577
C         6.40013129701428    4.22577372424225   17.56202874317984
H         5.63313987884543    4.98091974846728   17.64247981810528
C         7.54988118104825    4.31635960181885   18.29959279451544
H         7.70237735501029    5.14041759368988   18.98305812136777
C         6.85377653598748    1.04700618161840   15.61162669084901
C         7.75105839443094    0.49780683889376   14.67960820097833
C         7.29560956403511   -0.42807226262237   13.74232222500228
H         8.01033548710513   -0.80131886860094   13.02436513820046
C         5.98303836709645   -0.84686420225211   13.73050758339521
H         5.64912984366251   -1.55901251110238   12.99002397753406
C         5.10456231312882   -0.36339699986322   14.68590040974692
H         4.08031427415082   -0.70543041054186   14.71012416395875
C         5.54205434174530    0.56913240701483   15.60365198619236
H         4.85176703889992    0.93822012757845   16.34899483870324
C        11.56283777296493   -1.31539044613012   15.91353922787341
C        11.87254457823471   -0.18258996685289   15.17107558421696
H        11.63669377726562    0.79298758234886   15.57395960886030
C        12.46957884349218   -0.30278139095946   13.92975714916295
H        12.70004967883887    0.58060146976779   13.35308778984980
C        12.76601103828919   -1.55780607146622   13.42557099964120
H        13.22956730697335   -1.65592644549170   12.45492165664846
C        12.47312204644751   -2.69108613481602   14.16831450259953
H        12.71087285825207   -3.66979089003952   13.77689916779854
C        11.87528280208594   -2.57505351850531   15.40972875702897
H        11.65885271480686   -3.45936660071975   15.99377080840068
C        11.40985616204873   -2.50343785632818   18.47004817944589
C        12.79382155115489   -2.64187904814323   18.53561200822113
H        13.41960287671684   -1.96688911912575   17.96805112503640
C        13.36027436090373   -3.62847924165152   19.31757523402202
H        14.43453777125783   -3.72927925030690   19.36369165964148
C        12.55069326154634   -4.48361644911968   20.04853703436608
H        12.99322214131693   -5.25223285736864   20.66469442757435
C        11.17456483721252   -4.34956640531413   19.98943664443896
H        10.54161704549614   -5.01523692772040   20.55817820038788
C        10.60340863347270   -3.36099839181881   19.20700440283764
H         9.52798258227626   -3.25752532068880   19.16801386455219
C         9.01696340891394   -1.63160492461673   17.22501184698786
C         8.61936832141670   -2.43020123121662   16.16223141710211
H         9.33802520323871   -2.74751983034393   15.42131310692866
C         7.29245878170607   -2.80534036176428   16.04466052762488
H         6.98393567837909   -3.42593336553038   15.21674257683855
C         6.35894198004822   -2.38131244690468   16.97446517455855
H         5.32478893425297   -2.67359741790319   16.87227446037084
C         6.74843625236068   -1.56990271065729   18.02783351959723
H         6.01856842756980   -1.22436058623684   18.74551217384800
C         8.07218898309348   -1.19759387450560   18.15111683344521
H         8.38869446207707   -0.54774709723271   18.96114482109645

