129
CSD_code = VIDXUE | q = 0 | S = 0 | Stoichiometry = C54H64N6O4Pd | MND = 4
Pd       18.63266007557923   13.38682871046729   12.14698746886422
O        19.94449596666284   14.69418566384800   13.06657442582327
O        18.06963707955318   15.71892938347866   13.62880960196144
N        18.96782066471772   12.02802891683945   13.61696124724257
N        20.77268966046275   11.37848994280317   15.00903725434762
H        21.69291844286670   10.96254751428284   14.95912034303807
N        21.03653074840476   11.78201473169809   12.72577248011333
H        20.53030173128330   11.62052761893976   11.84035622748527
C        20.22443272387776   11.75028211074612   13.81356298820878
C        17.88851448088069   11.70608454197049   14.43631828556758
C        17.66971472783180   10.41278567640194   14.93164025351547
C        16.52709316674671   10.19076085301363   15.68777573487263
H        16.35235349161038    9.19932085363281   16.08254960174793
C        15.60265750486043   11.18897517033057   15.93160617992339
H        14.72423591931626   10.97376337725610   16.52292227701481
C        15.78323404408946   12.45581921929059   15.38996073553036
C        16.92466010421614   12.69548306077131   14.64739940052191
H        17.08961444332794   13.68610152147815   14.22338787651420
C        18.58927300016616    9.27386530144303   14.60769184236094
H        19.00829383055926    9.39353650505016   13.60909553143408
H        18.04585125984480    8.33207010814869   14.64835828939510
H        19.41261725879967    9.21904217494680   15.31927785973877
C        14.76444334002768   13.54173631271706   15.56436796352725
H        14.10992169424412   13.57792349800249   14.69243495177003
H        15.24963757741751   14.51094690743492   15.65428510823862
H        14.15072843539881   13.36535230019395   16.44506575601414
C        20.34341213634822   11.81382111619190   16.27051020594673
C        20.71370900237823   11.09183328346704   17.40909292514353
C        20.24153784992816   11.52809713140851   18.63820533136395
H        20.51302420198669   10.97761726291319   19.52773511599338
C        19.42680317846220   12.63954096036270   18.74824423397691
H        19.05774378766705   12.94069658016837   19.71750898515235
C        19.09631758779923   13.38328466081431   17.62228875303559
C        19.58083153320556   12.96948770095283   16.39372704226665
H        19.37733251705959   13.56479711372833   15.51797895137876
C        21.61569851987066    9.89628173129353   17.30873658003543
H        21.21242512790160    9.15083258347547   16.62368147140733
H        21.73780554443341    9.43283696868382   18.28407757276619
H        22.60400303055220   10.18585149078786   16.94569132952396
C        18.22709079411063   14.59816988419335   17.72307555986886
H        17.21046895567621   14.30129300833725   17.97955467425066
H        18.19871633320718   15.13159582413934   16.77663899212802
H        18.58694135245369   15.26998945002813   18.50083596401698
C        22.43045111831142   11.66640338790846   12.68583971896292
C        23.28043047871702   12.46234182495073   13.46331835556104
C        24.64988012027458   12.25948088624720   13.33612850840523
H        25.32027098166733   12.86187690790953   13.93292271061444
C        25.17319293870841   11.33396491058919   12.45460181747996
H        26.24336122397057   11.20741620761904   12.38001523711080
C        24.33185584657341   10.58549164625722   11.63811304178898
C        22.96602803604269   10.76238242576543   11.76873482949340
H        22.28380477449797   10.19936268549526   11.14794620064642
C        22.76266060564630   13.55674945732778   14.34676796439625
H        21.82851614469718   13.95105897644527   13.94949512368208
H        23.48997529357218   14.36501606020211   14.39082969206339
H        22.58899491561897   13.21553865837933   15.36842274032720
C        24.89527273318006    9.62932628412527   10.63139187495450
H        25.27989476395940   10.17859984635020    9.77178116640613
H        24.13222419096501    8.93943070217030   10.28061025279323
H        25.71856033030755    9.05983674552198   11.05833766889149
C        19.30727412870398   15.63386301032773   13.61476494686323
C        20.14463203017565   16.69303332344787   14.32150923051095
H        19.52164649342445   17.54137591364323   14.58968817230334
H        20.95369854020757   17.00837421783770   13.66775476500281
H        20.57766920886770   16.26083259360080   15.22216793638917
O        17.32095523908972   12.07915790630756   11.22767312517504
O        19.19625413280408   11.05500375697118   10.66579480989906
N        18.29733561252167   14.74588190275371   10.67730004513996
N        16.49194007949071   15.39507666567543    9.28568335277498
H        15.57173439478760   15.81103438752100    9.33589394819594
N        16.22891001555353   14.99185961264816   11.56909142187347
H        16.73540717262143   15.15347502631998   12.45432577035913
C        17.04066410018368   15.02352925778950   10.48102050956695
C        19.37649704307832   15.06764932344533    9.85769061482594
C        19.59505844245592   16.36073649811915    9.36172388296766
C        20.73767702966918   16.58260057087912    8.60553747806381
H        20.91221050566914   17.57385992179186    8.21022191980195
C        21.66234868937366   15.58445943228086    8.36228025162881
H        22.54073547947969   15.79951336570369    7.77086461437582
C        21.48196521571710   14.31783953627866    8.90449486517281
C        20.34053405983736   14.07832310773587    9.64710134051740
H        20.17573742731241   13.08787790081655   10.07157625535256
C        18.67523226640629   17.49964228779523    9.68493627237597
H        18.25620111378712   17.38054775158375   10.68359963957834
H        19.21842702449127   18.44154410980861    9.64365106261630
H        17.85190774198088   17.55377347569583    8.97327627264142
C        22.50089635894739   13.23195470517931    8.73064748707095
H        23.15405733179826   13.19486845625075    9.60357723771433
H        22.01566835509191   12.26291158298908    8.63907360308566
H        23.11596807174775   13.40910538012827    7.85103468291610
C        16.92066748394286   14.95947200623913    8.02413156062812
C        16.54956461674336   15.68093699084924    6.88548518739974
C        17.02134993933402   15.24442457210848    5.65630558773319
H        16.74923294362256   15.79451781493884    4.76672591115148
C        17.83639441572872   14.13321629721636    5.54622131518485
H        18.20506254535339   13.83187727891741    4.57686583566627
C        18.16760757268774   13.38992106070502    6.67226308110204
C        17.68355362176839   13.80400579116318    7.90090451145745
H        17.88764563992448   13.20902845737167    8.77673383244933
C        15.64715193717032   16.87618216260243    6.98575756204739
H        16.05057239902529   17.62226146796847    7.67004425706006
H        15.52416428032348   17.33894088566840    6.01019932791844
H        14.65922188254149   16.58642822742639    7.34967137956415
C        19.03706540057895   12.17519739320466    6.57154764364662
H        20.05356210615962   12.47218858694339    6.31470835415676
H        19.06581101153648   11.64204214655189    7.51812569129198
H        18.67712843538789   11.50308643363999    5.79407487812072
C        14.83501998279142   15.10767042826338   11.60951099935366
C        13.98463363550180   14.31190014078809   10.83231369996913
C        12.61526358004266   14.51510514230592   10.95988536745327
H        11.94455586972718   13.91289378064259   10.36326079351722
C        12.09242262890744   15.44070411514008   11.84160147881914
H        11.02230500508077   15.56749777125564   11.91649830780635
C        12.93416903832607   16.18891647762108   12.65791094409849
C        14.29991303916736   16.01176568567097   12.52682138603253
H        14.98245445555684   16.57465305294507   13.14737950698860
C        14.50189902816715   13.21733783352632    9.94874770339395
H        15.43629451855164   12.82309373775588   10.34549982049384
H        13.77456734376077   12.40905031719800    9.90528016671234
H        14.67491356911640   13.55837176409398    8.92692086650762
C        12.37131196072700   17.14503603090336   13.66498982208594
H        11.98734954155111   16.59570031388520   14.52486225620996
H        13.13452847413537   17.83500592893836   14.01526963934407
H        11.54766708549496   17.71444178712531   13.23862445332950
C        17.95857945376435   11.13970264668636   10.67958843822603
C        17.12176461224251   10.08035925610533    9.97248360393781
H        17.74511397985930    9.23219874324931    9.70453819366160
H        16.31257059625597    9.76481790274010   10.62597929225833
H        16.68893574164185   10.51243824884577    9.07165155191525

