37
CSD_code = VIDYUF | q = 1 | S = 0 | Stoichiometry = C17H15ClN3Pt(1+) | MND = 4
Pt        9.28651514130514    0.64434900068252    9.01509452453740
Cl        7.25885290612773    1.60718972380874    9.07436813385101
N         9.08866780632254    0.09996354540603   10.92658291965772
N        11.10907836133685   -0.14338775906817    8.97847926397194
N         9.50992727538570    1.29343017256680    7.13034590446314
C         7.88529439353865   -0.16033967325975   11.41279102834664
H         7.11069966118574   -0.41555110197892   10.70176992590266
C         7.58314756238386   -0.09303381621028   12.77599734332779
H         6.57934673448780   -0.30368531311946   13.10593566693570
C         8.56387774211665    0.28619329872440   13.65178561151090
H         8.36120742824482    0.41498420801426   14.70383910244123
C         9.87719575761472    0.48358011485385   13.17452477404423
C        10.93556813613445    0.80603620094544   14.04879141318538
H        10.71387039164659    0.95047216694140   15.09477695407347
C        12.21865292289623    0.90918331729525   13.58014677368026
H        13.02850161705396    1.15594065054773   14.24785884342679
C        12.48822726131214    0.64401759712543   12.23890719665863
H        13.51271050169176    0.65496606654853   11.89826958715501
C        11.48008519629922    0.36154654941858   11.32539301726182
C        10.12226409040296    0.33626900172294   11.77975550300914
C        11.88043844764776   -0.04058353045007    9.99804754802947
H        12.93058789367608   -0.31757458446938    9.90038697025975
C        11.61995359529759   -0.70675990511303    7.74596749267809
H        12.06810234494837   -1.68393789918606    7.95475382896199
H        12.40171956403471   -0.05843583746683    7.33138041488832
C        10.49172321878015   -0.88062004753182    6.72055012158399
H        10.84819473823061   -1.48795802865590    5.88958649736847
H         9.65436356630174   -1.40461684940181    7.20043310405452
C        10.02842187998936    0.45802784556238    6.21977720518782
C        10.16483288494439    0.83458735350098    4.89190953731353
H        10.57558016622442    0.13890069384950    4.17769376910258
C         9.76126792614677    2.09996228634212    4.49594223058395
H         9.84808422643578    2.40536413413265    3.46525540879313
C         9.25366673125627    2.96323715332905    5.45390774558489
H         8.93919998047904    3.96121327380456    5.19703593613069
C         9.14450078252546    2.52291559277771    6.76048102222987
H         8.74157116559426    3.16765439800663    7.53027767981231

