143
CSD_code = VIDYAL | q = 0 | S = 0 | Stoichiometry = C64H68N6O4Pd | MND = 4
Pd       -0.00009613049239    0.00000959036055   -0.00004949296248
O         1.55045680837244   -1.33670656713734   -0.02595100563062
O        -0.12434505116157   -2.73188464275858    0.35385423455791
N        -0.04328926796185   -0.08314309995263    2.04690114944924
N        -1.73154443383371    0.28195530029069    3.67183344228876
H        -2.59351110328759   -0.11866557931161    4.01636028387541
N        -2.05095504729640   -1.12074083670427    1.84200477019698
H        -1.53948796099193   -1.74216215730453    1.19804794569489
C        -1.24693299666947   -0.25651348906513    2.51228940264907
C         1.06342958397637    0.34965150799745    2.77435104604177
C         1.43039457438092   -0.24482289926672    3.99078203195637
C         2.56710280129387    0.22894704824455    4.62828025707481
H         2.85648001353602   -0.21376621442155    5.57133383697606
C         3.34393710184087    1.23457505388642    4.08419894873977
H         4.22063947717678    1.57918379500859    4.61346104122614
C         3.02379944588001    1.77635001159196    2.84624597644804
C         1.88754870663448    1.31873400370400    2.20154564440481
H         1.61113468612426    1.72478376424677    1.22817193367043
C         0.67393863718891   -1.40505032432410    4.56508164656606
H        -0.16257389784703   -1.06796307874769    5.17685627278403
H         1.33103116662119   -2.00378704206659    5.19244633091140
H         0.28078918586634   -2.03591904953217    3.76859064581058
C         3.88667366345703    2.81921879604611    2.20311294736802
H         3.28454145714566    3.66567522252249    1.87905126565820
H         4.38226202471908    2.40418256443753    1.32566240704843
H         4.64730203479525    3.17439278439300    2.89425219884018
C        -1.57929876950209    1.76148414833943    5.57971691548510
C        -1.35121342575415    1.51523630235911    4.22260925020441
C        -1.16270988299518    2.97848208454011    6.09859008808149
H        -1.32303495042122    3.18143287480270    7.14793575115643
C        -0.54242353471968    3.92892430492095    5.30923362168198
H        -0.21397038932682    4.85967274010748    5.74773076290067
C        -0.35666778739352    3.70239344134930    3.95140473016296
C        -0.78112443221624    2.49666663022751    3.42127322670092
H        -0.68518455217964    2.32434703253308    2.36166197634165
C        -2.27331368443023    0.75131398606551    6.44552605096494
H        -2.30654851192828    1.09625615109498    7.47549218213754
H        -1.75912649717176   -0.20912985855442    6.42303156191942
H        -3.29938691946454    0.59229889757114    6.10816917638082
C         0.27602754544569    4.73440832578750    3.07060988397326
H         0.41561913994816    4.34270087756636    2.06703637340521
H         1.24239245542775    5.03325715776886    3.47380795799826
H        -0.35369439853092    5.62203723409652    3.01195200268503
C        -3.44364097050056   -1.11344844547857    1.76617907235945
C        -4.10377900212785   -2.32026395506438    1.50120765383908
C        -5.48553549842225   -2.29710773638925    1.38914903261892
H        -6.01178014169838   -3.21852987258186    1.18291017940881
C        -6.20288493187728   -1.12363657799827    1.53823078479828
H        -7.27891239142000   -1.13532778228926    1.44450411609819
C        -5.54911391782584    0.07492767746718    1.79800998837055
C        -4.16826174984224    0.06673929518484    1.90892776511268
H        -3.63882199003718    0.99504816488243    2.06722470882124
C        -3.32773809254373   -3.59464507838337    1.36838635995654
H        -2.84240494139880   -3.84118299661152    2.31303097993380
H        -2.54438146220211   -3.50761001507710    0.61720956886274
H        -3.98598064292790   -4.41493920245274    1.09361573580916
C        -6.32344797637746    1.35094118828532    1.93797683979355
H        -5.66042666713320    2.18842676327021    2.14110881341935
H        -7.04684528497581    1.27140966237306    2.74905415365108
H        -6.87512205353632    1.55874226103841    1.02184860266812
C         1.08754423203464   -2.49156816792906    0.18552210056710
C         2.07201680149903   -3.62073190862213    0.18543908458781
C         1.62363227225573   -4.93573092652164    0.22033229824546
H         0.56132094231220   -5.12269087473799    0.27187283849219
C         2.53113509767700   -5.97783920799720    0.19087353341525
H         2.18170994804206   -7.00016599925681    0.21504895719216
C         3.88954352519580   -5.71170076302894    0.13088723260058
H         4.59863506439335   -6.52690272859553    0.10670065067374
C         4.34056398235542   -4.40141681280569    0.10643340221821
H         5.40105106499200   -4.19689586013482    0.06760091925910
C         3.43608894034519   -3.35664785002029    0.13328274036393
H         3.76796732975395   -2.32895500676825    0.12202617992407
O        -1.55069956117353    1.33667438202739    0.02583657477815
O         0.12407998020193    2.73191724734915   -0.35383373680933
N         0.04319395868729    0.08314473434175   -2.04700998646741
N         1.73162276754159   -0.28187776916756   -3.67179564606510
H         2.59359580285842    0.11879587241668   -4.01624876380759
N         2.05076761259199    1.12090142466265   -1.84199340517622
H         1.53921730829464    1.74230146323697   -1.19808858799480
C         1.24686256626234    0.25659068523800   -2.51231180111403
C        -1.06343908853360   -0.34977700013368   -2.77451687079054
C        -1.43035428095850    0.24455628999457   -3.99103012971472
C        -2.56700157521316   -0.22932985298582   -4.62855376462077
H        -2.85633118224901    0.21327306964045   -5.57167443969145
C        -3.34381964202421   -1.23494422871211   -4.08443167201680
H        -4.22046904058046   -1.57964981697595   -4.61372111182300
C        -3.02372776016029   -1.77659491233783   -2.84641215321880
C        -1.88754763633010   -1.31885386485474   -2.20168023178642
H        -1.61118209173435   -1.72478790677327   -1.22824203413521
C        -0.67390818907664    1.40473953896293   -4.56543137544954
H         0.16259170716635    1.06758982969703   -5.17718892529169
H        -1.33100686090611    2.00342084944763   -5.19284344724029
H        -0.28074802212514    2.03567976858073   -3.76900355960387
C        -3.88658542276436   -2.81946407164572   -2.20324225514762
H        -3.28439236307979   -3.66574482099159   -1.87885934908458
H        -4.38243968042438   -2.40430570704036   -1.32599946352872
H        -4.64699720543008   -3.17490298269337   -2.89447897390916
C         1.57980369735672   -1.76151784702123   -5.57961526013533
C         1.35146972173421   -1.51521563338046   -4.22255921906592
C         1.16338545476235   -2.97856928920004   -6.09849707128859
H         1.32391848236934   -3.18156500115923   -7.14780235458485
C         0.54302557207125   -3.92901187950778   -5.30919967329352
H         0.21471169755743   -4.85980421987192   -5.74770723450352
C         0.35702475517345   -3.70242494057725   -3.95141295361521
C         0.78131451015749   -2.49664454935187   -3.42126966103925
H         0.68518532603872   -2.32428170444888   -2.36168514102893
C         2.27391756542397   -0.75135398295548   -6.44535257484933
H         2.30731680529163   -1.09633497403255   -7.47530002319546
H         1.75970428102963    0.20907867964612   -6.42297056335002
H         3.29993622324507   -0.59230205769953   -6.10784597759765
C        -0.27574279808704   -4.73443364874163   -3.07066342236327
H        -0.41570039657635   -4.34260820689672   -2.06718680356314
H        -1.24193198823834   -5.03352650529468   -3.47409960249585
H         0.35413451936862   -5.62193159076059   -3.01168775289408
C         3.44345212431456    1.11370328234254   -1.76608043489471
C         4.10349980834073    2.32057430205041   -1.50114185716702
C         5.48525258449937    2.29750675110500   -1.38900185313918
H         6.01142948972834    3.21897198520273   -1.18278134729253
C         6.20268027429067    1.12407030644213   -1.53797544873292
H         7.27870124524407    1.13582973658419   -1.44418742744259
C         5.54899642148063   -0.07454914067813   -1.79772461452596
C         4.16814978452263   -0.06645073669963   -1.90871627636104
H         3.63877317316181   -0.99479984978211   -2.06698154007764
C         3.32736940629495    3.59491162446848   -1.36842879551723
H         2.84201830257037    3.84133251861266   -2.31309423788129
H         2.54401979291724    3.50788710417784   -0.61724172030053
H         3.98555461062504    4.41527599733146   -1.09372847547913
C         6.32341186888720   -1.35052679046852   -1.93755867530296
H         5.66049023831689   -2.18799866960084   -2.14107284805970
H         7.04714434991909   -1.27086783540978   -2.74832239652972
H         6.87470665373965   -1.55844476998424   -1.02122773568004
C        -1.08781145336442    2.49156230517985   -0.18555432471289
C        -2.07232454714576    3.62068307199054   -0.18545754785226
C        -1.62401117812752    4.93570588466979   -0.22032702691570
H        -0.56171026182608    5.12272433362364   -0.27188691033769
C        -2.53157291154239    5.97776306154861   -0.19087846037424
H        -2.18220473873515    7.00010948307092   -0.21507003564262
C        -3.88996608283148    5.71155118676584   -0.13091076942066
H        -4.59910497856548    6.52671274882249   -0.10671725306004
C        -4.34091673219252    4.40124306455400   -0.10645958152782
H        -5.40139141538392    4.19666202157492   -0.06761105707425
C        -3.43638461502301    3.35652409986093   -0.13330398777820
H        -3.76820511389562    2.32881401611445   -0.12203792923007

