42
CSD_code = VIDZEO | q = 0 | S = 0 | Stoichiometry = C12H16BClMoN6O2S3 | MND = 6
C        14.90944452391076    6.29188976700917   11.96711977384326
H        15.31648963669541    5.27329508515486   12.04087957392776
H        15.54941058255475    6.98438978485000   12.50750600628002
H        14.86366924720697    6.56596943661332   10.91235593743402
H         9.35309704605824    5.53577354844467   13.41241650329184
Mo       13.79966467645804    2.25864045664835   12.12776251488307
S        12.79270230529704    4.34780622218108   10.90083298438935
Cl       14.06609399397837    0.46779198006287   13.45735069600355
S        11.15278945554615    1.56698183419724   12.49448681424705
S        13.23132392148335    3.59124668353978   14.41830156706780
O        13.59318384223476    1.58525520938700   10.64114043542138
N        10.47905568420282    3.86657865367029   14.38393577114178
N        11.27799152132579    2.39784446001499   15.80082660198719
C        11.60445489545091    3.28311845533895   14.83809614261317
O        15.19457462212256    3.10617241665497   12.34476528767744
C        10.39904571922036    2.76862200833664   11.55483522442700
N        10.06661252446749    2.55164353865275   10.26686393637305
N         9.97459252279937    3.99635747332183   11.91519767575947
N        11.54898431398782    5.66459977628301   12.99066089185125
C         9.91937880544640    2.39574010644739   15.93909073864044
H         9.41892988234342    1.75708968825151   16.63671453755299
N        13.59394392217110    6.31133484699330   12.54209591751476
C        12.61790059322717    5.44797173037478   12.20770882090196
C         9.44037491997539    3.66844552661938    9.79200584934657
H         9.09366302656365    3.74023124959894    8.78229930253763
C        11.87920888133381    6.67835288478472   13.84740378258373
H        11.18713705552675    7.02431123819148   14.58576489535199
C         9.43070383591975    3.30388809944788   15.06250915621344
H         8.42257374059125    3.59693160566452   14.85918348444984
C        10.46578178545788    1.38909863208977    9.52509377126179
H        11.55535448762786    1.27766964687670    9.59196670363141
H        10.17069264025292    1.50603637357016    8.48579374625428
H        10.00377996553035    0.49578230171439    9.94832260146303
C         9.38239705488973    4.55512257806094   10.81242738383546
H         8.97400791642205    5.54262778129043   10.84821573696653
C        13.14508098071516    7.08034795402688   13.57518737514693
H        13.75109107294069    7.83602819035121   14.02997015586912
C        12.22334440339684    1.55484170880081   16.47690999372962
H        12.74614462972582    0.92689941477042   15.74812560697699
H        11.69696134720095    0.92790294952103   17.19185810061909
H        12.96416587763547    2.16782622791989   16.99224615422922
B        10.26730214009305    4.81394247426337   13.18617184630577

