55
CSD_code = VIDZUF | q = 0 | S = 0 | Stoichiometry = C16H26N4NiO8 | MND = 6
Ni        0.00072435881850    6.30627310092303   -0.00042043076176
N         1.95421353392176    5.04699987001199    0.30357159185046
N         1.66033354098413    4.92512306859721    3.01945575188182
H         0.63643373425082    6.25048255409394    3.24234831235101
H         1.68005528446784    4.67284092888276    4.00364427975882
O        -0.55926591803995    4.89552903140620   -1.41662394335277
O         0.10915854944069    5.67364549474377   -3.38488589648435
O         3.15565390409495    7.14767038883519   -2.16889365901831
O         1.17879769663275    7.11889192466077   -1.16869746264659
C         0.28986573554886    4.97536257587923   -2.29611774758554
C         1.63621374476547    4.31335353426015   -2.14955568825209
H         2.18206022144459    4.37904514159482   -3.09082083727407
H         1.51562032102830    3.26824208013200   -1.86230616606070
C         2.43647803350449    5.10230267138075   -1.08722978649409
H         3.48535641171402    4.77090799818421   -1.15128186627043
C         2.29083223922054    6.60246981655335   -1.51859176743503
C         2.93334860431233    5.80126102125952    1.12443781078321
H         2.66303401545481    6.85728148922542    1.09476316716759
H         3.94111464926537    5.69512141909722    0.69725727123817
C         2.98847477169140    5.31606780130142    2.57742683279696
H         3.70744600822673    4.48612181037657    2.67157645331871
H         3.34585641083866    6.13232004157967    3.20937787819521
C         1.15060333940737    3.78542207521707    2.23795460058049
H         0.07617255487462    3.93265562769176    2.10937893113462
H         1.32065297673723    2.83364154677623    2.75742402565225
C         1.80967591802967    3.70304315042142    0.85530382495405
H         2.78937463611179    3.20026997104695    0.90997733577209
H         1.15225533856768    3.11481857176352    0.21576969420387
N        -1.95451100388316    7.56437776874219   -0.30336822143521
N        -1.66176341621110    7.68529351900508   -3.01969363279752
H        -0.63585597886585    6.36160651646338   -3.24338221966450
H        -1.68274113848665    7.93789287242335   -4.00377374162572
O         0.56041572474999    7.71757720527114    1.41548917057082
O        -0.10782042667837    6.93915696192565    3.38379231571012
O        -3.15175059257069    5.46362157459295    2.17153963380342
O        -1.17658035820591    5.49332827017198    1.16822601603453
C        -0.28854378127405    7.63760786784146    2.29509708612543
C        -1.63522831358970    8.29907328104610    2.14898367528521
H        -2.18033529633494    8.23366051974150    3.09068536734313
H        -1.51532778109041    9.34407254368654    1.86103544292393
C        -2.43580176045522    7.50897008505574    1.08769516381555
H        -3.48494535775045    7.83934500529772    1.15252595900135
C        -2.28864407454758    6.00897269658711    1.51906988305748
C        -2.93291701831178    6.80839864864177   -1.12356304349772
H        -2.66075140965774    5.75280564226240   -1.09407357539058
H        -3.94064856565406    6.91278122941795   -0.69573732118697
C        -2.98933018310869    7.29333298540876   -2.57659973349486
H        -3.70909550348790    8.12261143171578   -2.67076705664416
H        -3.34642344032299    6.47658435732377   -3.20812644637207
C        -1.15200858459185    8.82502178114191   -2.23808420897787
H        -0.07784614741514    8.67696964749993   -2.10814285764813
H        -1.32071934686119    9.77664523980463   -2.75814365760609
C        -1.81219935174308    8.90814003626320   -0.85610321476768
H        -2.79278080461552    9.40903575336781   -0.91197236607400
H        -1.15638670435146    9.49845185340082   -0.21685092649217

