26
CSD_code = VIFFOF | q = 0 | S = 0 | Stoichiometry = C11H10MoO4 | MND = 9
Mo        2.83928293229203    6.50345976174196    1.98351934525756
O         0.01195197520550    9.34471213468634    1.29724569777917
O         5.03854558916918    8.65941511929550    1.76144042239778
O         5.51967415419796    5.10881817924182    2.59315081008098
O         3.23611777231896    7.14215889011701   -1.00537859973904
C         1.07692949713500    7.77401620019477    2.67851167619516
C         0.53999869856844    6.59789802558521    2.07580482131323
C         0.90628835850889    5.49408274385188    2.86864236093940
C         1.68270785475619    5.96169998782222    3.95577489910994
C         1.79763229951835    7.35993963721691    3.84653038475841
C         0.75651087623431    9.14113982679398    2.23196583893627
C         1.37813969161066   10.26376908515226    3.03238342461172
C         2.93622552056390    4.49390645647986    0.89810074507186
C         4.20885402699782    7.87300753051155    1.86635587386145
C         4.52774352220001    5.63121779321257    2.35999325797375
C         3.09607550668468    6.88971665892461    0.10029472610223
H        -0.18257741303015    6.60085265001965    1.26790914123564
H         0.52594946562322    4.48477042952118    2.76107641326996
H         1.99092750304526    5.36711123312822    4.80832594952846
H         2.19479883083303    8.01447292907861    4.61291971193014
H         1.11413408512860   11.21617886674683    2.58046965569415
H         2.46210089369553   10.16067443205781    3.05459952071257
H         1.00360293758323   10.23793817593292    4.05475719898989
H         3.76891395430160    4.32445856847318    0.21934053692404
H         2.02155196299096    4.40753904525860    0.31255849140132
H         2.94871950386638    3.68814563895187    1.63130769566388

