35
CSD_code = VIFLEC | q = 0 | S = 0 | Stoichiometry = C18H10Cl2N4Pd | MND = 4
Pd       -1.37752356070278    5.87589298029977   12.07244734983600
Cl       -2.36003818953185    4.70192277985827   10.37812493677909
Cl       -0.38221058674602    7.05880348148757   13.75338366208929
N        -2.68363277925284    7.25769261113961   11.87399299274872
N        -0.17562415064690    4.42230474325009   12.38432084488197
N        -4.57304146524222    9.25822853146221   11.59513352947284
N         1.56315619659676    2.32032710569498   12.84036455029980
C        -3.82277759251236    7.22445936042758   12.56377232767320
H        -3.97245474949246    6.37973972536797   13.23627736217683
C        -4.76316274753284    8.23176074841772   12.41661784356160
H        -5.69273222741467    8.22311286287866   12.96636820378700
C        -3.44956550193583    9.29251543497961   10.91368123142948
H        -3.30119253296399   10.13040928946478   10.24732928280373
C        -2.47597225394812    8.29008799334047   11.03718449175722
C        -1.26093323337467    8.28570476393116   10.32804120746596
C        -0.23076742113297    8.33366974633510    9.68953702927903
C         0.97485662992738    8.34976054813690    8.96992050329321
C         1.27198443073844    9.37866126427123    8.07563382844953
H         0.55870464624968   10.17703489918753    7.93619499806336
C         2.46554829733565    9.36876537499646    7.38111308283744
H         2.69031672245527   10.16720104133390    6.69028137531453
C         3.37864267055149    8.33685297569112    7.56658216757125
H         4.30901409351596    8.33798302177525    7.01915420417279
C         3.10261021280740    7.30975015129292    8.44743849713644
H         3.80740868776961    6.50551726630991    8.59603516837088
C         1.90202275242013    7.30189727541023    9.15819760606297
C         1.59447499025488    6.27045836333220   10.05995032821087
C         1.29212447331531    5.39831198711921   10.84687167648929
C         1.00551203886320    4.35360002420721   11.74447371822145
C         1.87021373614310    3.27732742798437   11.99323390506952
H         2.82367970765578    3.20429116275149   11.48958157538702
C         0.39299898389704    2.40261171870125   13.46370711311962
H         0.16068624750590    1.60603381658572   14.15500546917585
C        -0.48524185440880    3.45161701495181   13.24246791370840
H        -1.44668467117608    3.52519250762293   13.75078002329383

