94
CSD_code = VIFNAA | q = 0 | S = 0 | Stoichiometry = C37H51Cl2FeN3 | MND = 5
Fe        0.71487663372844    1.67110422674635    1.69111880723069
Cl        1.28157036009192    1.51894048367332   -0.33435385203664
Cl       -1.26585220165049    2.15741802653917    1.99047455616601
N         2.36756759363876    1.26675158932196    2.16142012167394
C         2.74472756928162   -0.04507208559094    2.21478839209400
C         4.08336148437183   -0.38250708379435    2.38650745992349
H         4.39148854699138   -1.41211504479544    2.41087350314803
C         5.03013245450514    0.62137287594593    2.50667535936329
H         6.07066215193499    0.36922560075001    2.63940951128645
C         4.64243930136348    1.94877419134102    2.43140203832736
H         5.38222944246987    2.72558058516387    2.49700580532495
C         3.29888395715461    2.26086323868971    2.24738214385068
C         1.60881232557352   -0.91565498907201    2.08680970774515
N         0.47547216086811   -0.27666493182433    1.93656807165535
C         1.68054589571804   -2.42423010980607    2.10321533940187
H         0.64308227881195   -2.77775776283619    2.09425054166573
C         2.35544997381188   -2.92316555945982    0.82096758718556
H         2.31131396802230   -4.00958044557272    0.78321287412417
H         3.39657616788585   -2.61602002886943    0.77696774567106
H         1.84947339529391   -2.52327946829021   -0.05349178094833
C         2.35901705623314   -3.00209427467044    3.34990992715399
H         2.08929834416612   -2.43664882691574    4.23742273610574
H         3.44099507006886   -3.00239056363488    3.26029973644810
H         2.04091028659758   -4.03322690856305    3.48869647552429
C         2.69189134840272    3.55687863950015    2.11700586880865
N         1.39687448825976    3.51491280884328    1.92591267787611
C         3.46179517933657    4.85486447468823    2.18370611689222
H         2.71266071265750    5.65434661391036    2.18876089195222
C         4.31808322044393    4.99504248664392    3.45062174391032
H         4.38363975416299    6.04320482284135    3.73470738737160
H         5.33187263029071    4.63869061072182    3.29121421108682
H         3.88809791358103    4.43869273833257    4.27961724935343
C         4.31632652711579    5.02288355217062    0.92264440969244
H         4.79385656056028    6.00038644736544    0.93293366107305
H         3.69970108965483    4.94597124858830    0.03226816053254
H         5.08704446765968    4.25923261931008    0.86436691527301
C        -0.76815275753843   -0.94318664470695    2.00998968910857
C        -1.46634837745252   -1.30508152716418    0.85102097080115
C        -2.72514151447999   -1.87477159688494    0.97794598295961
H        -3.27355541329229   -2.14637716225812    0.08953180705287
C        -3.28845794137893   -2.09540365729734    2.21826491498489
H        -4.27179200260413   -2.53436409925096    2.29926849378728
C        -2.58677943120214   -1.75007430166342    3.35640830014378
H        -3.02985019295827   -1.92383783376503    4.32476705744459
C        -1.32626807928216   -1.17832246375684    3.27788748356819
C        -0.88908476731019   -1.06910708673613   -0.52223336552350
H         0.14343829494559   -0.72855921142004   -0.41566781748770
C        -1.67433778528550    0.03967563928635   -1.22578294708787
H        -1.19486743497387    0.29528954095667   -2.16722175462820
H        -1.69952535324364    0.92993378703292   -0.60219733964404
H        -2.69800164269818   -0.27192383728238   -1.42149854532463
C        -0.88543384021585   -2.34786200804627   -1.36314464250443
H        -0.33375757301207   -2.17821451025841   -2.28507442228884
H        -1.89622164896265   -2.65022960096883   -1.62571309916388
H        -0.41464228003530   -3.16665655185957   -0.82203056179883
C        -0.60577389223350   -0.80203718790109    4.55239238685860
H         0.40959996705875   -0.47251948075051    4.30377708668879
C        -0.50649919256152   -1.99115594428081    5.51249438187787
H         0.16146875344619   -1.75079332748987    6.33758503380893
H        -0.12730973462548   -2.87327137225853    5.00200529899052
H        -1.48003443717129   -2.23395311464914    5.93016067055338
C        -1.32255179387362    0.37016440366303    5.22386297955944
H        -0.77100082313894    0.69652576494044    6.10352976306458
H        -2.32540386840611    0.08398449952446    5.53081469458848
H        -1.40189385208692    1.19846029364830    4.52619918939417
C         0.61601786549764    4.69536260867099    1.92243977920192
C         0.08463645507054    5.15216284747880    3.13922395965240
C        -0.66516757542249    6.31889535510265    3.14641915833630
H        -1.06226225387302    6.68757245371371    4.07943075651942
C        -0.91859284965199    7.01439383956386    1.98127704430458
H        -1.50486782460811    7.92097884878116    2.00581595189986
C        -0.43393303992641    6.53090401418233    0.78304028512148
H        -0.65617550691300    7.05902011096613   -0.13072442252014
C         0.33662411552607    5.37815539814005    0.73020722453205
C         0.28844117537191    4.40296068351524    4.43582486245829
H         0.82716788563515    3.46998027456289    4.22178465880603
C        -1.06407936766291    4.03426496521044    5.04940392139510
H        -1.67013563282927    3.50325457012351    4.32056404123211
H        -1.60576113595337    4.92310425516250    5.36189666418641
H        -0.92016324608862    3.39989039945408    5.92108443331310
C         1.10680345898923    5.23393184261546    5.42738848951296
H         2.03821138684490    5.56924725597892    4.97990307268062
H         1.33637231123953    4.64480936945280    6.31306071303142
H         0.54704378529605    6.11241448018116    5.73937074074381
C         0.79381321689656    4.85345717491407   -0.60770164707617
H         1.52696910927940    4.05973438191689   -0.44570025387863
C         1.43713705936766    5.93722464463029   -1.47591988622427
H         1.92135617723742    5.47780305756232   -2.33479656195940
H         2.18224695483115    6.49775039100059   -0.91437286002009
H         0.69347252560440    6.63794192331795   -1.84744169349934
C        -0.40891583272032    4.23474805858063   -1.32548205601000
H        -0.08651281499647    3.74983606987647   -2.24316455726701
H        -1.14923844817688    4.99548081058060   -1.56416229805750
H        -0.87720744831781    3.48675870898465   -0.69020331212112

