62
CSD_code = VIFREH | q = 0 | S = 0 | Stoichiometry = C22H36N3Sc | MND = 12
Sc        2.91580978300252    3.44516158496651    0.53660438381952
N         4.35367073189169    1.75108546051361    0.19042974992525
N         3.93405552074023    1.10908288342606   -1.05397065498470
N         2.00925550860047    2.43173366562076   -1.00114304796707
C         2.78786206766210    1.49234805490964   -1.53088300499731
C         2.34915587386647    0.76535033985965   -2.78201056422121
C         2.51229270638258    3.70472754515478    2.96794272910054
C         1.27445260694011    3.90777729474265    2.29567906661751
C         0.89377376967537    2.66705207738597    1.71019376889066
C         1.88274306436167    1.70126740156546    2.02511638181957
C         2.89544684391088    2.34590239767250    2.77812724697229
C         3.65293556029655    5.75651733277686    0.64682604124128
C         4.81845930526975    4.97895131000551    0.37347187022496
C         4.70413294831554    4.47083757378094   -0.95014900157580
C         3.45871543998017    4.88431302647193   -1.47414454275306
C         2.79222310789357    5.65885596400941   -0.48763271677225
C         3.10888723440649    4.56918946678265    4.04243739774534
C         0.32994759805394    5.06455064998251    2.46984801750141
C        -0.44385582664955    2.37516068033452    1.09359250711174
C         1.77070097178088    0.23629785249542    1.70933700695873
C         4.04537882317451    1.70618186187847    3.50824574708722
C         3.58497025352759    6.85965590839504    1.66588990268406
C         6.06846976633401    4.97276392350475    1.21194223215379
C         5.77702876295581    3.79988806101002   -1.75975401696966
C         3.02809321793532    4.72081032673777   -2.90111232544590
C         1.56460776839764    6.48950519631973   -0.74088786011146
H         4.30810213900055    1.00454537392157    0.89479693195985
H         5.35427612710976    1.93104938686698    0.05429181451031
H         1.15964755913500    2.55976969953683   -1.54805885161669
H         3.12147443553459    0.06783419832589   -3.09064616567205
H         1.42866419853625    0.21673983694873   -2.58523213486166
H         2.16065973323293    1.47761469016170   -3.58388943629906
H         2.68778704470042    5.56983860194737    4.03494430118288
H         2.89214581309120    4.12612851124856    5.01850082547437
H         4.19284007077997    4.64238457235416    3.95568853212846
H         0.84086955047057    5.95076158536736    2.83773610193363
H        -0.17446784198751    5.31529003537548    1.53711587115328
H        -0.43965147721611    4.80027865710110    3.19972732924350
H        -0.38633564353561    1.51538236333796    0.42983574030848
H        -1.17488186172568    2.15136821575700    1.87552251465780
H        -0.81433587065385    3.22891434219766    0.52749534483179
H         2.53384705375260   -0.33865308197328    2.23039315729838
H         0.79745008119589   -0.13722273485847    2.02940381273340
H         1.86575986700423    0.04445734080893    0.63877568280495
H         4.98528217995392    2.22804194517205    3.31855642273569
H         3.86432864922313    1.73977504417067    4.58540905397573
H         4.16979750396768    0.66152008117261    3.22952175481433
H         3.92625651533429    7.78885656202593    1.20032254946926
H         2.57294688131153    7.02993376074912    2.02570929682471
H         4.23191085511413    6.66233292553713    2.51566173553026
H         5.83562970113449    5.01883713909351    2.27474121103500
H         6.66675122455634    4.07946960922776    1.03586138485143
H         6.68837064170783    5.84017696279879    0.97099492824633
H         6.66012521674709    3.59484252912762   -1.15771594905589
H         5.42463075455216    2.86625096797340   -2.20004689126788
H         6.07984780214305    4.45637498062273   -2.57790759928023
H         3.39750097254442    3.78421072605611   -3.31377365093691
H         1.94386974444554    4.74354489153468   -2.99304306310124
H         3.43238088652540    5.53658462960804   -3.50644542461789
H         1.80684621930298    7.31518094502543   -1.41476870950586
H         0.77377213235976    5.90249288577291   -1.21022468977648
H         1.17918773197853    6.91482397962720    0.18244995420796

