68
CSD_code = VIFRIL | q = 0 | S = 0 | Stoichiometry = C24H40N3Sc | MND = 12
Sc        7.57758577863755    2.84234117355119    8.10273120504537
C         9.41717315553020    4.45603617856521    8.55663827238112
C         8.19038437386068    5.16445513071789    8.67419619254967
C         7.48389775187160    4.65759444461594    9.79584227766942
C         8.25204616804109    3.60008172163649   10.35364728228242
C         9.45414782506763    3.48162064524743    9.59616265517124
C        10.58414776158653    4.95731215478599    7.75116113841158
C         7.82459214425342    6.40976520624851    7.91903193986196
C         6.26462965432637    5.31122002874856   10.37801441214147
C         8.07082780475898    2.95968970984587   11.70171314028244
C        10.66512550913205    2.75149632641544   10.10790977015300
C         8.55556456467400    2.28053895730678    5.89875858174603
C         9.23158353110513    1.53662856443379    6.91231155105639
C         8.29926415746373    0.59126302305149    7.45000182840479
C         7.08446556717437    0.71547763667246    6.72131146228764
C         7.24094494245864    1.76360844237449    5.78506833221485
C         9.17823093809112    3.21733493928999    4.89940388941606
C        10.72383730128446    1.36714641962436    7.00479488082885
C         8.69467398177435   -0.55509218353715    8.34317392933168
C         5.90857819177005   -0.21885323290945    6.73120152252357
C         6.26438858494179    2.10770425931754    4.69939027253391
N         4.78218054676154    1.51040806064548    9.76796485337161
N         5.64506706954989    2.27724269700916    8.92249873800730
N         5.84854225888571    3.78096338482940    7.28372662380568
C         5.04253696876747    3.03081176048767    8.01352523002937
C         3.54526221538796    3.04717672675601    7.80985030653947
C         5.48371535670855    0.34380760300260   10.26037669818000
C         4.25036693844332    2.29113439046488   10.87489526688839
H        10.93335880289663    5.90199265505022    8.17628602705767
H        10.31306667966521    5.14547021057833    6.71376980216846
H        11.41746668011998    4.26005741580855    7.77311731395176
H         8.15868158277390    7.29408708580000    8.46905831544019
H         6.74678979647980    6.48312286560044    7.78808229697418
H         8.29540355000276    6.42786295348230    6.93807445441710
H         5.91561226355205    4.78296689686787   11.26082493954943
H         5.45136717375627    5.35240781493675    9.65274706294675
H         6.50233940140392    6.33690828402360   10.66886079952989
H         8.33999032966629    1.90326045899260   11.68387123916823
H         7.04653196960159    3.04981663527357   12.05433612921509
H         8.71849896463290    3.45122772239754   12.43346466296294
H        11.48855705923742    2.79593268030664    9.40124583584909
H        10.45057306749969    1.70513248878456   10.32830084642133
H        11.00025819982235    3.21670517509969   11.03895699155450
H        10.22929872617816    3.38412951158844    5.12053278564097
H         8.66610767180604    4.18147270641298    4.87651858371338
H         9.11084794161954    2.78512709006547    3.89852287452678
H        11.25644253320782    2.29799983450093    6.82944047627532
H        11.04444232145195    0.65507618673741    6.23813889163826
H        11.02401117006225    0.96577803822187    7.96874008444318
H         9.24536391587448   -1.30464629842360    7.76780690218078
H         7.82570624643599   -1.04101202493678    8.78041487279803
H         9.33963640497609   -0.22440986143789    9.15737200899837
H         5.67424856354431   -0.51334894424913    5.70735983233686
H         5.01779993482550    0.24574951869280    7.15559826393298
H         6.13231900978379   -1.12359752510172    7.29246151364067
H         6.38610612335332    3.13934624694630    4.37590791918540
H         5.23930068887423    1.96376379593468    5.03438746966784
H         6.42796147027806    1.46203108496204    3.83171922508510
H         5.34653950135958    4.32201014120266    6.58492965662070
H         3.32329819177775    3.08972395339948    6.74450439770688
H         3.10705383832502    3.92666095291054    8.28103114085512
H         3.09778166680628    2.15597505739161    8.24220166141069
H         5.73652906084654   -0.29532845743420    9.41912081965267
H         4.82337953499801   -0.20197264246654   10.93353081169407
H         6.40719172542325    0.61023484644053   10.79848680470494
H         3.42920476474279    1.73110730943468   11.32403795310604
H         3.86841432225568    3.23898146828412   10.50482913551334
H         5.00145810778383    2.49238249872087   11.65100694435407

