52
CSD_code = VIFTIN | q = 0 | S = 0 | Stoichiometry = C13H31MoP3S4 | MND = 8
Mo        2.96763303537437    1.23131849949651    2.25320253454509
S         1.28997112909713   -0.42613918971285    1.22083947343919
S         2.00390100692183    1.33711749771340   -1.11219730061684
S         3.85580341413810    2.94976875989617    0.57814567412072
S         3.47994402066460    3.61817565745133   -2.27029240402519
P         2.39054290753494   -0.17552274220442    4.17863861826342
P         1.07303325247217    2.70357425253388    2.57082579298041
P         4.68971727603828   -0.26999607946409    1.44627389936483
C         2.08180875907198    0.81774880296708    0.48388330929969
C         3.17461066472283    2.71373353051635   -0.94368994249359
C         3.76560666424924    2.82543256807157    3.62051361772909
C         4.82437398326912    1.95505591979666    3.28860988171754
C         0.62073509164780   -0.30795252702706    4.62405192063103
C         3.11292136301477    0.16495638113033    5.82846788244409
C         2.72749464412783   -1.96826648581899    4.03880221090754
C         1.10567692520528    4.22516959097490    1.56809147432147
C        -0.57678946591108    2.09458832107409    2.06374952845815
C         0.69200606310265    3.46016630213252    4.19596680891614
C         5.71109679552503    0.40426556528776    0.09554070294815
C         4.16576778790225   -1.82019895860232    0.62579416541934
C         6.04042462908586   -0.88082031130090    2.52406595825008
H         3.39049201208062    2.78897170642009    4.63987199561156
H         3.80472219114184    3.83354083996356    3.21583049903122
H         5.61079003842552    2.34794350004687    2.64917348252052
H         5.19829542226273    1.30095233046541    4.07220588925010
H         0.09038656033957   -0.73773870786129    3.77398508844845
H         0.20679476668092    0.67355330904694    4.84337037867347
H         0.50408799537180   -0.95662091184192    5.49337253203222
H         2.81484891151459    1.15730468519573    6.16378742278510
H         4.19972766571128    0.12385030337236    5.77340556451389
H         2.75834725945617   -0.57882527606818    6.54261571393168
H         3.78515557322540   -2.14539551371742    3.85773954234496
H         2.15049376399595   -2.35243164361997    3.19729772356296
H         2.42237577167664   -2.47814063633375    4.95365942749365
H         1.06935436697287    3.96201313343903    0.51030146231956
H         2.02613318343912    4.77645428985839    1.75619211051808
H         0.24331107363612    4.84641865310084    1.81642630026193
H        -0.86388475153419    1.21825636470017    2.64193721865539
H        -0.53649111013155    1.81586882522927    1.00944092258190
H        -1.31564257840557    2.88599426598609    2.19737008064193
H         1.41308302139734    4.25490893187862    4.38114405758085
H         0.76139541772462    2.73006191691153    4.99972151760274
H        -0.31236721600881    3.88400772743691    4.17371113963804
H         6.16601817734749    1.34428365299983    0.40538893025968
H         5.08024801558417    0.59405761741275   -0.77373945486318
H         6.48812780656821   -0.31427286994070   -0.17112573753932
H         3.50007653763367   -1.57167152848087   -0.20215372872964
H         3.62964788524652   -2.46510264166178    1.31944330086283
H         5.04194160579531   -2.34135242958292    0.23754426425945
H         5.66068586725827   -1.21649324887789    3.48679963127708
H         6.74259905139711   -0.06519198374855    2.68965623166250
H         6.55586576698439   -1.70398001663227    2.02854268620327

