39
CSD_code = VIFXAL | q = 1 | S = 0 | Stoichiometry = C18H17ClNRuS(1+) | MND = 9
Ru        1.26833438462876    8.42946571127630    2.29028166415939
S         3.38712768943512    9.11608723534071    3.07691345195209
N         1.90992965762784    6.62074384991555    2.86237407577573
Cl        2.16223815546319    7.80549240315812    0.22766533246626
C         5.04852955970273    7.59512882632829    1.42790602775432
H         4.58477275591057    6.70587769185963    1.82703237316369
C         6.03007198731246    7.48815075818878    0.45885949373827
H         6.33549829775105    6.51002549021489    0.12188927239755
C         6.60467315848489    8.62497478593423   -0.08740152463093
H         7.36255719648301    8.53029842282571   -0.84906609965742
C         6.20205867313337    9.88065148891406    0.33650252431162
H         6.64457301496104   10.76723740016399   -0.08944241419519
C         5.22601969840404   10.00229957846249    1.30966593382785
H         4.90075462040509   10.97355340119719    1.64934182390105
C         4.65726579216435    8.85674902402788    1.84738985957906
C         3.61469270535667    7.69304591663561    4.21723434103164
H         4.68087894066493    7.55281803488228    4.39365187311021
H         3.13728925209123    8.01027302108755    5.14881787492266
C         2.96288755787414    6.45606420373496    3.68131719847077
C         3.43265918261553    5.19245330600677    4.01698437817870
H         4.27992263148043    5.09913672445568    4.67761851801181
C         2.81155624472457    4.07106457232810    3.49273495843636
H         3.16387054203619    3.08282814913121    3.74047510241642
C         1.74176871328869    4.25269496220353    2.62795676537504
H         1.24079310426049    3.41347964206123    2.17479988382633
C         1.32937860104092    5.53869457995740    2.33723976820796
H         0.52325245660865    5.72085681027544    1.63571728662249
C        -0.47593151686527    8.65298418458577    3.77000061580859
H        -0.67125978690322    8.19336337232695    4.73191535397883
C         0.19942958142123    9.87922121151302    3.70003908643358
H         0.53230574666426   10.37072772035861    4.60704553378465
C         0.36047229348532   10.52892374502922    2.44838861268446
H         0.82105640299334   11.51004717814803    2.40861234605881
C        -0.14330273839139    9.94083223861994    1.28387402060943
H        -0.06350624428952   10.45591634890712    0.33330798252125
C        -0.85415114570601    8.71262525894111    1.35738030317490
H        -1.30962579973272    8.30325527599149    0.46258854981175
C        -1.02454062395279    8.07853920847302    2.59183241378723
H        -1.62980074263497    7.18151826653897    2.66595543819312

