43
CSD_code = VIFXIR | q = 0 | S = 0 | Stoichiometry = C16H21CrNO4 | MND = 9
Cr        1.69809980369766   -1.39401598958737    3.95994237043357
N         5.88768250724747    0.95265867765409    0.74341773805689
O         4.79907548661600   -0.49859265134233    3.17950936506859
O        -0.18658454598694   -1.92515800964750    6.20299644349769
O         2.63502324675427    0.66841527294013    5.88493455598439
O         3.49042087008751   -2.89981349603112    5.79207948125166
C         2.74322365848092   -0.73646730380029    2.08029346808856
C         2.68693657087098   -2.14374795292627    2.08214655939544
C         1.42428346504987   -2.77604665186039    2.15796499291762
C         0.25247645570301   -2.03460001014881    2.28990918929665
C         0.30514712055965   -0.63058804499802    2.28464860833109
C         1.54653528812463    0.00099105333612    2.19974164788222
C         4.04982875001296    0.02514017583563    2.09289925544451
C         4.82709546732067   -0.04905986864553    0.75086574707771
C         3.86614855936635    0.02964401707693   -0.44453313342005
C         3.89875987440910   -3.01075813540594    1.90800200869071
C         5.67247497165966    0.41566803329265    3.80162384129295
C         0.50994375849564   -1.72808481830375    5.30062316704940
C         2.25836248803059   -0.10522405106786    5.11201557843178
C         2.80011969935253   -2.34956422938428    5.04733180671516
C         5.47033988566016    2.30361857840480    0.43075862034383
C         7.03588434716183    0.56909229957609   -0.04952670303673
H         1.37187568685341   -3.85586966788633    2.07867666235167
H        -0.70755251712035   -2.53697384189071    2.31121119836934
H        -0.60739974356787   -0.04841319058691    2.30589403644998
H         1.58777849070831    1.08408189397945    2.14574562207884
H         3.82615659222516    1.08193095896175    2.30159403664291
H         5.33148971836473   -1.01888513251737    0.72934251896916
H         3.23267211896983   -0.85313256377679   -0.48097348056227
H         4.43110886615796    0.07933411207014   -1.37305876264437
H         3.22843924440715    0.90831623446312   -0.37788547025386
H         3.71823852719961   -3.99695122474649    2.33190231069970
H         4.75546565071932   -2.57063298262015    2.40861459935829
H         4.12904451420019   -3.13601306220937    0.84779904658807
H         6.14508466542076   -0.13429436740255    4.61254955387976
H         6.42716274973749    0.78216299372889    3.10099899287772
H         5.11691366258725    1.26261142885603    4.21911188324566
H         6.27505606797707    2.98411649029668    0.71051964628972
H         4.58818369061004    2.56918525818216    1.00859907889103
H         5.25082377701411    2.45308457570590   -0.63653026777477
H         7.39701540101564   -0.40373405598497    0.28064924911773
H         7.82738082167864    1.30112185572218    0.10854451353871
H         6.82548428616805    0.52114739268842   -1.12914957690744

