47
CSD_code = VIFXOX | q = 0 | S = 0 | Stoichiometry = C17H23CrNO5 | MND = 9
Cr        1.05884901175822    9.71195666943135    5.98550389252789
C         1.12022512360638   10.25561777634158    3.71780868847673
C         1.05698248260015    8.85470975150484    3.93883639710894
C        -0.03412248005605    8.30635562187094    4.62782537272444
C        -1.00766754497875    9.13403176554915    5.20790205871540
C        -0.89720310729355   10.51813568789785    5.08296295494029
C         0.16000871702985   11.06498886350815    4.33120950583022
C         2.13921030681202   10.90768593497231    2.80585943180738
C         0.68163481157330   11.67214203894689    1.11444904050865
C         3.40867845061426   11.37718935643218    3.59345265240624
C         3.13776015165637   12.67436566328024    4.35548462960037
C         4.49062686905699   12.36908502338012    1.62521807449947
C         5.24761660903311   10.25723928184125    2.45720020914749
C         2.09389907345103    7.88701279015132    3.41547463681777
C         1.62761482246528    7.21275360531157    2.11748207172378
C         0.94857140875682    8.75488542168395    7.52812911667493
C         1.41961530982900   11.05170064859461    7.16743881227395
C         2.80028096698913    9.30745076948885    6.30613721493204
O         1.57840622909142   12.02211950220372    2.13345441974957
O         2.28628383091347    6.94413714151519    4.45369911741806
O         0.95970965929570    8.16773302957978    8.52332374989584
O         1.69157392904288   11.84165226048829    7.96778550496521
O         3.88857450638759    9.02456984918688    6.58112770720672
N         4.59850890480118   11.50522867141403    2.77937472459506
H        -0.12430359257579    7.23046789991685    4.69620949834252
H        -1.86863090798967    8.69374330982055    5.69699183633442
H        -1.66251776559795   11.17079531057239    5.48445832172453
H         0.18474884290921   12.13113517085425    4.13943238614879
H         2.46586983654924   10.17557390087614    2.04761473210900
H         0.33711029830369   12.60436057516251    0.67120871702735
H         1.17294085297844   11.06489956158079    0.34202725713816
H        -0.18081142166040   11.11372476148416    1.50054203619698
H         3.62681263519168   10.59825114612675    4.33343272950582
H         4.08496941613216   13.07640735338088    4.70144019651885
H         2.64926893081790   13.40624234012073    3.72033498456626
H         2.51083961059649   12.47137141982502    5.22042282185566
H         5.49625060339604   12.62177492217602    1.28692403430586
H         3.97409607194357   13.28253738387635    1.90087966375032
H         3.95347750052333   11.90368447573036    0.78528729502072
H         6.22989185153444   10.47652155634518    2.03912151361801
H         5.38414594970405    9.67433817840276    3.36718749212399
H         4.69835608942256    9.64646933313920    1.71957439769512
H         3.03810245381008    8.41771255325229    3.22821889686208
H         2.38738755170139    6.52373202404169    1.75337809611084
H         1.43829968047788    7.96026268679291    1.35035596400941
H         0.71105980582117    6.65565515626214    2.29743008388981
H         3.05779766357415    6.40189185568604    4.26238706059774

