52
CSD_code = VIFXOZ | q = 1 | S = 0 | Stoichiometry = C22H26ClIrNS(1+) | MND = 8
C        -0.27290628412832    7.41800214999060    3.49829196163969
C        -1.15370928840986    7.24774636457543    4.55709578230709
H        -1.27323262856301    6.27211804156511    5.00285674404005
C        -1.86183913006362    8.33562233463280    5.03312101047932
H        -2.54285342190588    8.20896153565404    5.85999469204007
C        -1.69428429205107    9.58088604515806    4.44957924965480
H        -2.24484141489162   10.43029529871834    4.82199477410609
C        -0.81353322090702    9.73842221574197    3.39268494827879
H        -0.67318446385553   10.70875972978339    2.94245185867174
C        -0.09280563599347    8.65892167880502    2.91200485270780
H         0.60995404182424    8.80239411041913    2.10601599696293
C         1.07295754520954    6.30432438656071    1.24579718168127
H         1.29298857084447    5.32017698337516    0.82356352817958
H         0.20323676587420    6.71628436226289    0.73465758381828
C         2.27001918007439    7.19589430579814    1.11263493262782
C         2.40614885588149    8.01684366852191   -0.00092948023008
H         1.63576854866913    8.02160021604767   -0.75593527253250
C         3.52510204866641    8.82161679908869   -0.12361526513126
H         3.64318395733174    9.46963837470969   -0.97736485896281
C         4.48051036550690    8.78085685220732    0.88123080935928
H         5.36353610724373    9.39639130038762    0.83769882580856
C         4.27695256593178    7.94210185227879    1.95906454283072
H         4.98536210262648    7.90586508562146    2.77322275966181
C         3.28963125784410    3.88921150296508    3.93212138878821
C         2.81996109301267    4.38457505451590    5.21843993457770
C         3.79207716408021    5.27930573571871    5.73030685935484
C         4.82265666955332    5.42761704108408    4.72726542397046
C         4.53442098014443    4.50109401904164    3.65455992729752
C         5.44909043898304    4.18973903067964    2.51993054349815
H         5.98704306067558    5.07461952444029    2.18694837582735
H         4.90879098556239    3.77209508410602    1.67444980978908
H         6.18532518309889    3.45389766610736    2.84621940714774
C         2.65191919903625    2.77816768877532    3.17056420559898
H         2.98922724775508    2.75832359736319    2.13755988517551
H         1.56727516774548    2.86100114924093    3.18413496288780
H         2.91904323997612    1.82591552317635    3.63048215735795
C         1.63573532697251    3.85381435916592    5.95362824751971
H         1.93782666197460    2.99272691677601    6.55159158647843
H         0.85657683126919    3.53107682103739    5.26762660113102
H         1.22235659423158    4.60408157368825    6.62300011101791
C         3.83164818632087    5.90680633003873    7.07920448708380
H         2.97014894227688    5.61864586030251    7.67331108360443
H         3.84902918730298    6.99278669989845    7.00073935710954
H         4.73788399776195    5.59420891344983    7.59730974060430
C         6.10365691566873    6.15785823943364    4.94650758848182
H         6.73379212692780    5.58094852954299    5.62527587080546
H         5.92093851719900    7.12602185289316    5.40808132009083
H         6.65126705168668    6.29932375387982    4.01839330291002
Cl        2.55417241616081    8.22167474134956    4.72283862765300
Ir        2.92793581710607    6.08905466797321    3.83204641923906
N         3.20061752104865    7.16062660913714    2.07744907049280
S         0.61242134369307    5.95545782230708    2.98369654650342

