77
CSD_code = VIFYAL | q = 1 | S = 0 | Stoichiometry = C23H51MoP2(1+) | MND = 11
Mo        8.77622775693088    1.84191287816156   13.51339966305403
P        10.17720997054253    2.78863650920944   15.44916176883367
P         9.53178446116245    1.99737043833663   11.06591644164331
C         7.00437308347878    3.39988978116240   13.48358112695422
C         7.07678141186824    2.78845575051310   14.75499277590202
H         7.11990342713414    3.35044612938191   15.67501819510725
C         6.74745678872005    1.39814129665441   14.66929306359319
C         6.50948286419164    1.12360828362915   13.27538015737856
C         6.72340633997811    2.35429171333129   12.57864871478480
H         6.44626826571513    2.51679504575121   11.54771318568628
C         6.83137229436270    4.87733868627728   13.20972667551630
C         5.33674957855225    5.16953048782997   13.43840221883324
H         4.71866740958654    4.57063557899944   12.77252777741415
H         5.13135778341598    6.21944179336276   13.24639318974174
H         5.05109389869496    4.94502515743317   14.46399569372564
C         7.66162514110363    5.74437232760478   14.15821575768643
H         7.35985192940551    5.59835713327461   15.19254226936453
H         7.51714651956125    6.79482350774213   13.91736493198659
H         8.72068682758008    5.51305376197164   14.05275598666241
C         7.19850749004845    5.23731148596768   11.76804087535960
H         8.22662788576770    4.94694535335365   11.55504654496963
H         7.11123148254277    6.31136914700676   11.62318557252517
H         6.53169086466082    4.75445242852356   11.05727242908031
C         6.44586485222940    0.60404180769890   15.94398937593183
C         4.93023751184171    0.34663376937581   16.02433715432017
H         4.67022516223616    0.03523979157377   17.03335732245895
H         4.61130378066197   -0.43778754423129   15.34789585025608
H         4.37583323820163    1.25612874264527   15.79787265416661
C         7.22702940536064   -0.71287739506071   16.06871725293890
H         8.23102695273949   -0.51846877430359   16.43917735722107
H         7.32798973582173   -1.23398456457254   15.12780229635770
H         6.72652600415410   -1.36735584769006   16.77859032123332
C         6.80433287588270    1.42063879970202   17.19743443231548
H         6.16292260369342    2.29203779398876   17.31454591719287
H         7.84874167574864    1.72904755038457   17.17539840212950
H         6.66403544866267    0.79146296791227   18.07357810476109
C         5.78995151793387    0.00623232168304   12.51635796443818
C         4.29004995313332    0.36153491331884   12.53243509951036
H         3.73938809848731   -0.36729808073611   11.94304244990369
H         4.12247521834177    1.34674064204766   12.10092417802854
H         3.88456199616251    0.36197866068664   13.53807531920571
C         5.99361690461136   -1.41270865061434   13.04908637906255
H         7.05089758710655   -1.67075428243244   13.04147485091225
H         5.47370564847047   -2.11409730558140   12.39970492896101
H         5.59337784167448   -1.54509115066224   14.04627786781631
C         6.23151256386542   -0.02796535415429   11.04225803912706
H         7.31737097394768   -0.06231541249961   10.96941419937355
H         5.85126426310392    0.82189598645371   10.48096475402150
H         5.83283649822261   -0.92204821917578   10.56917834579643
C        10.92090550779300    1.50035937932930   16.50786558325505
H        11.67671022056250    1.94265297398150   17.15689012167385
H        11.37478643580156    0.74630640628104   15.86554418494914
H        10.15653188000150    1.02391076163938   17.11836578504075
C        11.69314013204964    3.58935464945968   14.81526934833820
H        11.42782164987152    4.45205281979284   14.20729695946016
H        12.23752185499434    2.87421640382424   14.19942898781517
H        12.32047804866587    3.90967977880795   15.64720706935610
C         9.68779136393988    4.03764879046060   16.70485488975891
H        10.54296685429090    4.20463586942489   17.35936043193961
H         8.84945537589253    3.69551423907514   17.30698384365541
H         9.42668266864399    4.97387451179771   16.21813622362986
C        10.32157153331780    0.45993603915423   10.47894089377727
H        10.78737941638927    0.62953635296988    9.50807867444662
H         9.58307870248599   -0.33431714308887   10.39188232069411
H        11.07347153298923    0.15525946693554   11.20646951359825
C         8.52751681958826    2.44818607316046    9.59611608892402
H         9.18969412416691    2.46194007604704    8.73072376296314
H         8.08827363444085    3.43508787969279    9.71961201397608
H         7.74284452622610    1.71532231851290    9.42685508588097
C        10.92511935154575    3.16331974023733   10.86300692398552
H        11.70501317412567    2.90439380625830   11.57781296450178
H        10.59270062532712    4.18092028675382   11.05779049820615
H        11.31897331786920    3.10017082527984    9.84862929001069
H         9.34125697382406    3.29896637544457   13.17545204115071
H         9.02244315274650    0.74276861929153   14.62302804099638
H         8.72356647788937    0.40698031165586   12.83224959337332
H        10.33172285729480    1.45765654665194   13.34658303151738

