72
CSD_code = VIFZER | q = 0 | S = 0 | Stoichiometry = C31H29MnN6O5 | MND = 6
Mn       -0.44278331914080    1.76896458216079    8.73565819199233
O        -2.02116257316439    1.92252130877367    9.81113976285373
N         1.95021487905675    1.99548092573724   10.28725401944773
H         2.40383588356020    1.85419943078157    9.39434052800920
N         0.62059038811319    2.13410887527807   10.31309693597904
C        -2.17698704157159    2.21134267941084   11.07925991973363
C        -3.49579361980284    2.36041686029289   11.55469357056334
H        -4.30160975619645    2.22310619488806   10.84620400021272
C        -3.76498097380395    2.65394628042285   12.87076658106581
H        -4.78889199863485    2.75436222685753   13.20214108858157
C        -2.72211033041757    2.82186624259205   13.77186821418623
H        -2.92799886035095    3.05553149599608   14.80546948932605
C        -1.42067851187160    2.68702575207952   13.33668088285224
H        -0.61277754723972    2.82406921024488   14.03922337680078
C        -1.11591918230357    2.38570647311102   12.00921225289618
C         0.26524248139690    2.23928522513969   11.59432633625589
C         1.42846546431606    2.16967328613611   12.39634314030650
H         1.48487977782599    2.21147791203249   13.46380579056990
C         2.48088835932448    2.00159396175048   11.52906702515991
C         3.93641755438293    1.83841823432519   11.77036203202212
H         4.25971653845283    0.84345753851237   11.46537326246539
H         4.15440696822641    1.96574611807551   12.82660296987051
H         4.50686722321587    2.57116266407242   11.20071238831415
O         1.06002335576557    1.99361872733541    7.61828497472952
N        -2.71678591918971    0.77666456292772    7.31992589158471
H        -3.11539030700004    0.70696365437825    8.24651504758578
N        -1.48076672426231    1.26901169379466    7.19499336683176
C         1.17513848075513    1.97761623268528    6.31472172838370
C         2.42479391019225    2.33379468918182    5.76549616591181
H         3.21860828435371    2.59332603513416    6.45224297859966
C         2.64415694155264    2.35149675547250    4.40832600032957
H         3.61542083436881    2.62848731094648    4.02421019475997
C         1.61902548529811    2.01533933863254    3.53324328431794
H         1.78580095218662    2.03240406730534    2.46684167537368
C         0.38808654692862    1.65354246348700    4.03740919000698
H        -0.40559565028474    1.38976816576234    3.35485850764814
C         0.13598195087325    1.62115235288609    5.40943133847955
C        -1.15874301257933    1.19950172777915    5.90301543890609
C        -2.25035995874482    0.64415725252648    5.19346463820623
H        -2.30996558521306    0.44722702133055    4.14362038111331
C        -3.21960672171202    0.37878342939414    6.13052469539574
C        -4.57748243317355   -0.20759015678498    5.99802440091601
H        -4.68147776342101   -1.07868997740296    6.64352033356131
H        -4.75146877815352   -0.51095864366608    4.96989487799982
H        -5.33910074216672    0.51897414343126    6.28114897422594
O        -4.87046103124088    3.87570894138619    8.52631950505583
H        -5.74161148460019    3.53860223542307    8.77116242253544
N        -0.92857223422005    3.84457049011162    8.29982430813148
N        -2.24017637999905    4.10526196741136    8.27641140395422
H        -2.89392510157206    3.42684847970010    8.65451545366252
C        -4.99379897579681    5.16798058749813    8.10098103638189
C        -6.24951624112121    5.75259288916235    8.00886041038930
H        -7.12046180276683    5.17365984644920    8.28882009334958
C        -6.39817674137236    7.05417422199906    7.56797408932720
H        -7.38335824339837    7.48942697821681    7.50419261997821
C        -5.27920981881250    7.78725227464485    7.21139394665709
H        -5.38387693953926    8.80309496057358    6.86385240591939
C        -4.02685237404814    7.21530361391912    7.30523279144740
H        -3.15770862142395    7.79042087461022    7.03115194894907
C        -3.84803182332623    5.90393147330275    7.75076036339580
C        -2.50965429717546    5.35371781162153    7.84764748077407
C        -1.27423714371420    5.92249534222951    7.55891948658575
H        -1.07078091949624    6.90508355231935    7.18757158196369
C        -0.31939801257622    4.94722762783905    7.86041900526383
C         1.15668138049549    5.06938132246431    7.74689674006540
H         1.62750884237489    4.26056410709031    8.29842476116878
H         1.48668692854521    6.02843094350211    8.14112167789614
H         1.46134956604487    5.00121975392321    6.70287895692613
O        -0.11681567583841   -0.02414330044757    9.03194623645167
C         0.81797559074760   -0.87225849386353    9.00371092676264
H         1.65591294898848   -0.56335442593734    8.29274512298531
O         0.90408365510312   -1.92664840038483    9.58984937970280

