51
CSD_code = VIGFIA | q = 0 | S = 0 | Stoichiometry = C14H30N4O2Zn | MND = 6
Zn        7.57099723650130   10.89677986717913    3.69687354723647
O         8.49096787351656   10.02940363453227    5.17296746898952
O         6.86878911943278   11.81777875713463    2.13616646301754
N         8.94634749771045    9.67348100177398    2.41927632834542
N         6.22303655781184    8.99544964728145    3.38868567632324
N         8.78483392064813   12.76102915273403    3.96893056449834
N         6.11736646355080   12.10342119254347    5.09170714653628
C         9.52015992201583    9.37142234204390    4.72749636373190
C         9.81656718385121    9.15532082002895    3.43980460215146
C         9.70901887401009   10.29774715301813    1.34667747111913
C         8.12279092451982    8.61168815172298    1.83819589794436
C         7.18580055644087    8.02197991123816    2.87813272847537
C         5.18005867028115    9.24083507923408    2.40023856147979
C         5.63258655373215    8.44695438694950    4.60276085623576
C         7.55433247753512   12.90042787227269    1.91573940523409
C         8.48413197762792   13.42008591495395    2.72696562986384
C        10.22300059302868   12.68230691326193    4.18626218435061
C         8.18832318625620   13.47139483564230    5.10150407567286
C         6.67188967678242   13.45316370952556    5.01477515423164
C         6.17181692597355   11.61220419642215    6.46305193665853
C         4.73227319234197   12.16174747776777    4.64290022925033
H        10.18883509063112    8.96603346155163    5.49513290072742
H        10.67449225594725    8.57644103601495    3.12282289474966
H        10.38882354304015   11.03968696455296    1.75544974209809
H         9.02966707318107   10.79611725471217    0.65672774434688
H        10.29978927666427    9.55282911154048    0.79415633094315
H         8.76070745982182    7.80416623598112    1.44085500496991
H         7.55296430987109    9.03954849141644    1.01152106933638
H         6.66259307662332    7.15119658655610    2.44831962127298
H         7.79440040832503    7.68029615560383    3.71862891530141
H         4.41377986711861    9.87884205191079    2.83113222828563
H         4.71578477143979    8.30152201111024    2.06592340346769
H         5.59939427384236    9.76760709853816    1.54975423256592
H         4.83398174007933    9.09580206302798    4.95292612123867
H         6.39714521277934    8.38586317391231    5.37418917535609
H         5.21145625329762    7.44603081131868    4.42803650527709
H         7.33078349071693   13.41666018369369    0.97536652544163
H         9.00791736299738   14.34147077288841    2.50678708188779
H        10.70590376979730   12.22925701401121    3.32528401219086
H        10.42806552526868   12.06585133328694    5.06018837242552
H        10.65636095266635   13.68099068320515    4.34139432524524
H         8.52703691769408   14.52107663709314    5.11845129716147
H         8.52291713446827   12.98612040849218    6.02001131346410
H         6.25155122169847   14.08874132194384    5.81226903890501
H         6.38879820018766   13.87720684166180    4.04851165267858
H         5.65767489229536   10.65748991322412    6.52772787893214
H         5.70064695105200   12.31925166431439    7.16132843087073
H         7.20433814756001   11.44382216576995    6.74991548838422
H         4.25488160524987   11.19587111546403    4.78644444330016
H         4.71197106654330   12.40766003841259    3.58339581981445
H         4.15964876557104   12.91582538152793    5.20243613801181

