104
CSD_code = VIGVIT | q = 0 | S = 0 | Stoichiometry = C45H50O3P2PtSi3 | MND = 4
Pt        3.31734658053921    1.88719452965332    4.86120322202135
P         2.47755444536876    2.05893233298471    2.74976001550333
P         4.29577315039606    1.52411578444931    6.86134783572435
Si        5.42697775748688    2.48203643816922    3.95743319104885
Si        1.16449732967272    1.14708191681384    5.61340014390612
Si        3.98816221709695    5.34514587706396    3.14788240627773
O         5.44993953821020    0.41916723253787    6.90766811109201
O         5.20219888582080    2.62854609770806    7.60016758531328
O         3.30892768708961    1.05044559743234    8.05940174797363
C         3.49594115078766    2.48020132626341    1.29805907942471
C         3.04486256125077    2.03339988203655    0.05652149274387
H         2.12778858775886    1.46430358379891   -0.00339304734109
C         3.74817067760472    2.29899949967228   -1.10047373483265
H         3.38145160277572    1.94460622259200   -2.05234973938180
C         4.92938733604161    3.01989665059881   -1.02268005937934
H         5.50371327721920    3.21976707017377   -1.91575593525395
C         5.35762381719717    3.50074472699997    0.19666654219151
H         6.26500222015680    4.08677759764046    0.24698717525026
C         4.64662899984288    3.27548854565157    1.37607308204613
C         5.11774523550751    3.89589105553918    2.63170868184118
H         6.09778119679593    4.33670300184584    2.43212554977047
C         1.77577926939826    0.42265608439369    2.42596791776245
C         2.50996724090499   -0.49604172034618    1.67707719969630
H         3.42952949807920   -0.18206091419707    1.20187154763337
C         2.08269071789526   -1.80229144688569    1.53858499008201
H         2.65558305617706   -2.49952014837662    0.94434997399665
C         0.91906786998020   -2.20936872886554    2.17334602782743
H         0.57223302182298   -3.22738537518713    2.06722342406216
C         0.21661544298320   -1.31973312374255    2.96096163910222
H        -0.67018326300918   -1.65280222787644    3.48181657813698
C         0.62613616778718    0.00318478423498    3.12249968312105
C        -0.05001226895186    0.87323590758130    4.09371347640465
H        -0.97645152093370    0.41910922348852    4.43715493990069
H        -0.28322926441009    1.84996146233090    3.68354405703786
C         1.18624427126403    3.30980274936000    2.47569348092860
C         0.17399623314501    3.06239248325625    1.55301179415943
H         0.11762521430142    2.09509383028130    1.07218564830089
C        -0.77178088322203    4.02849950758162    1.27243094055290
H        -1.55668389369063    3.82730572273707    0.55866638092152
C        -0.70750032400231    5.25377693211814    1.91735848473952
H        -1.44510151529937    6.01428189440999    1.70647413078673
C         0.29757652344938    5.50251858827680    2.83165051641183
H         0.34163998038082    6.46023411167606    3.33099367816824
C         1.26403388122086    4.54476757253690    3.12551534651618
C         2.36719204010519    4.85558925057300    4.06776900655225
H         2.07296909699625    5.67797374719525    4.71882176291074
H         2.57645559835922    3.98221216906203    4.71014811420410
C         6.32455495015797    1.13766393508872    2.89075052239146
H         6.88148756471773    0.43775775866477    3.50592817133353
H         7.02278657384371    1.61075614783526    2.20590456730657
H         5.62271857845116    0.56075005254180    2.29527357053641
C         6.89029414126817    3.20921241499482    4.97390224592389
H         6.63398537890063    4.14898141314415    5.45058291217138
H         7.75489697138359    3.38159680048831    4.34039261218638
H         7.18539644924935    2.51398332321020    5.75250442150213
C         1.03101837167199   -0.60448295978561    6.42569981677137
H         1.35721443138271   -1.39299235795019    5.75174394563162
H         0.00093135005111   -0.81391612839334    6.70068845142582
H         1.62936084624214   -0.66646134376327    7.32768464033139
C         0.11341637733241    2.27521923754908    6.77830988135419
H         0.57722790700795    2.33939287126477    7.75737819985942
H        -0.88121623016981    1.86160232011727    6.91199603432178
H         0.00179545264842    3.28395451257982    6.39109845661409
C         3.47259935308315    6.30558306977993    1.57981841919425
H         2.91534413870333    5.67008132530940    0.89756974964628
H         4.34108931036739    6.67645315145674    1.04544871687515
H         2.84587157088529    7.15828114592381    1.82059991379886
C         4.93876532732084    6.48799664614819    4.34078867095036
H         4.39451250505290    7.41012844235902    4.51468937253896
H         5.90807891063052    6.75262485892735    3.93435938847883
H         5.09999205483324    6.01626506949163    5.30375537793435
C         3.82176956235155    0.71070098914752    9.30186084819827
C         4.21872704463795   -0.59481636038717    9.54940366401125
H         4.14932499444445   -1.32796195181236    8.75974311933037
C         4.69131817067495   -0.93785492815914   10.80370087870217
H         5.00001529068251   -1.95424009677024   10.99709467430989
C         4.77212241302153    0.01615160839658   11.80400853109493
H         5.14481932094428   -0.25456142882942   12.78033639914467
C         4.37462197624116    1.31797781275763   11.55007808923587
H         4.43602518127605    2.06536353988434   12.32686082061687
C         3.90052733527715    1.67139066810955   10.29906027006798
H         3.58612457551241    2.68283949675640   10.08746843814651
C         4.80391501069986    3.93704589553657    7.71375040704199
C         3.50608564963472    4.34637305969055    7.44620863253934
H         2.76313883425377    3.61608220583538    7.14935261476222
C         3.16510731943221    5.68038521816144    7.59751871633616
H         2.15199773113491    5.99322101365211    7.39629356258476
C         4.10907391013185    6.60292577172987    8.01248904226231
H         3.83925495348701    7.64129112057757    8.12863902796179
C         5.40359598396815    6.18769261769773    8.28190296385772
H         6.14484332062873    6.90187055943281    8.60696977195209
C         5.75555689201302    4.85871735453814    8.13509243270639
H         6.75765127738020    4.51713708299635    8.34078743842214
C         5.62987074434308   -0.56127296425807    5.95770182327121
C         6.86904357872205   -1.18955796152292    5.93988978384178
H         7.62218552458887   -0.87784249616523    6.64674368253416
C         7.11693827938927   -2.19293113693669    5.02116742927674
H         8.08209743981409   -2.67651919644400    5.00896149943780
C         6.13634215238560   -2.57135400604285    4.11857740677784
H         6.33504712292423   -3.35114731371049    3.39942659576461
C         4.90173625560181   -1.94756621660488    4.14535711623201
H         4.12733429216876   -2.23607875854396    3.45079010038624
C         4.64052132847336   -0.94397288295744    5.06400800934033
H         3.65467780334403   -0.48535732785864    5.09930406493866

