92
CSD_code = VIGWAM | q = 1 | S = 0 | Stoichiometry = C33H56P2Rh(1+) | MND = 6
Rh       -1.15426558597704   -2.30543743983011   13.31076321372403
P        -2.65729680656034   -3.77086825835461   12.39903121839669
P        -1.90303686848331   -3.10924158649167   15.31784603895472
C        -1.29274324578801   -1.41841615827916   17.48726517366014
H        -0.70179046681613   -0.83123096891956   16.77937860540304
H        -0.64488653206996   -2.18251795748469   17.91918435573837
C        -0.57245403671859   -4.19457338373839   16.02665779869439
H         0.17341344185552   -3.48681892252447   16.41215484668198
C        -1.78635765632806   -0.50845246894024   18.61077327044736
H        -2.31654418109286   -1.10822849860538   19.35362293205533
H        -0.93003068948082   -0.04707851113838   19.10481043502394
C        -2.72216204113220    0.56553349173268   18.06980698969176
H        -2.18294448702935    1.20122250192973   17.36367031535231
H        -3.07308982026023    1.19776169281514   18.88566250274832
C        -2.28429237028949   -5.00687965068543   11.05729776112055
H        -3.11752606921077   -5.72147042418475   11.03141906370449
C        -3.38445564796858   -4.20265841750753   15.07354667668453
H        -3.44106504067004   -4.93716804867815   15.88048349775500
H        -4.26279462232435   -3.55901269444413   15.15802316131182
C        -0.98692533667089   -5.12338409470980   17.16551767661390
H        -1.67844380472527   -5.88393203848978   16.79756524496780
H        -1.48342750571820   -4.56621559840904   17.96235976375587
C        -3.36572294362198   -4.88101981285773   13.70905550640809
H        -4.36559365241207   -5.21002651233048   13.41601330404023
H        -2.72874546275475   -5.76762290026654   13.74244495056273
C        -3.43251497205013   -0.99592864322520   16.24009335803558
H        -2.92809148478647   -0.39477006020898   15.47810629837578
H        -4.30104061985052   -1.46171185785196   15.77131539178004
C        -4.08260877366361   -2.78203492062804   11.73453251440108
H        -3.69749325248665   -2.35044361123209   10.80109289918030
C        -2.46783863839136   -2.06826021902905   16.75436741203972
H        -3.00505959880106   -2.72999897384636   17.44651685097198
C        -3.90818918021357   -0.08769128693091   17.37060973413609
H        -4.57523241926948    0.67580669180062   16.96737466826862
H        -4.47435461503908   -0.67720268627161   18.09483755024572
C        -0.99704309472117   -5.75540686953081   11.41452972328002
H        -0.18401746431860   -5.03384021452199   11.53620397246723
H        -1.11622193613131   -6.28156710859428   12.36322536123197
C         0.28864663499401   -2.00016220240902   11.71851795301109
H         0.48999976200648   -2.84632048557925   11.07606072927856
C        -0.71843096755899   -1.06872596197427   11.58105947123609
H        -1.47187894919551   -1.03071302356380   10.80614506925302
C         0.96600214432516   -6.60970209466643   16.62176673732221
H         0.30744799544734   -7.40307945607049   16.26120059066069
H         1.86142483788619   -7.08106116193286   17.02773977953021
C         0.25508106301681   -5.82241266601847   17.71953471879822
H         0.93784445120012   -5.07771848656783   18.13449758492076
H        -0.03451716712186   -6.49465831191056   18.52835027828748
C         0.64952038106648   -1.28547020218688   13.95342343556922
H         1.10069778978486   -1.62680418753832   14.87512175599152
C        -0.35423838305754   -0.35073371874282   13.81361131681751
H        -0.85627459083815    0.19369697347786   14.60155045758091
C        -2.14824641112326   -4.34067932046223    9.68689590103747
H        -3.08950234186763   -3.87120803052307    9.39760210129774
H        -1.38069552502497   -3.56367958668472    9.73427459646594
C         1.35807860062670   -1.35768115935351   12.60028989059752
H         2.34096797622462   -1.81953074385997   12.58932135487664
C         1.34411365462842   -5.69738044601011   15.45704762242094
H         1.81791210418885   -6.28157555549958   14.66662292011470
H         2.06408704220575   -4.95072438011832   15.79880741475548
C         0.10107827993218   -4.99915340458237   14.91396805299154
H        -0.59154533430698   -5.75472070570684   14.54001193310932
H         0.36557095187347   -4.33125610257643   14.07797121028432
C        -0.27568284362082    0.16007807046864   12.37596571614266
H        -0.79132126763631    1.09136414118245   12.16063877136852
C        -1.76709064582329   -5.36337821743412    8.61781286365028
H        -2.56745752311314   -6.10025756712007    8.52235865987498
H        -1.66200945509473   -4.85924763562414    7.65598236325045
C         1.24487128195974    0.10823528266105   12.14746869126782
H         1.79796642924879    0.79765941809914   12.78430858884655
H         1.52782259441150    0.25885406643545   11.10633976208108
C        -4.39867845186510   -1.61772858143803   12.67455748192420
H        -4.83566527871232   -2.00275232670941   13.59722487197204
H        -3.46995580903056   -1.08210758928173   12.93102837979074
C        -5.35843641273473   -3.55770286270029   11.41502352461895
H        -5.80290746576296   -3.94514928445403   12.33390762249217
H        -5.14729525013532   -4.40125353262365   10.75492992353961
C        -0.46978021165766   -6.07420214339919    8.98323426848578
H        -0.21886159806758   -6.80703344482353    8.21606797271241
H         0.34579746372064   -5.34890090092625    9.03091322198751
C        -0.62224443134694   -6.76500003031160   10.33298223071602
H         0.30804648179119   -7.26426992927432   10.60827606900576
H        -1.40187179048669   -7.52649618474622   10.26273754629398
C        -6.67435728123858   -1.42947840760871   11.65370575622706
H        -7.15370209613043   -1.78720529275244   12.56771818432786
H        -7.37314608715064   -0.75831640708865   11.15376525969085
C        -5.39794358498865   -0.67284246525173   12.01422948087044
H        -5.63278525284703    0.15127109939198   12.68964826332050
H        -4.95852371861302   -0.24883678850291   11.10881277483185
C        -6.36290293231539   -2.61772550072785   10.74746771910704
H        -5.95205551866871   -2.25712045078465    9.80189216004591
H        -7.28068586143766   -3.16341569310336   10.52424895745805

