122
CSD_code = VIGXER | q = 0 | S = 0 | Stoichiometry = C50H68BP2Rh | MND = 8
Rh        1.95619589818380   -0.11573623777855   13.62878064699173
P         0.31538918939003   -0.29926851450189   12.09637064773036
P         2.63165565285537   -2.12075987032681   12.91902232818790
C         1.08275300908482    4.15226196903531   13.11667496299425
C         2.49572476876613    2.25954858846381   14.37836184240001
C         3.62902524375502    3.68015214043514   12.45120443740630
C         3.03000760833747    4.77661323706283   14.81002965346417
C         0.74479225969748    4.13478179618604   11.76534446044587
H         1.49646368259650    3.84783921895970   11.04192414475617
C         2.56430079572939   -0.04170321981424   16.07775178972343
H         2.64880978155383   -0.83748300390326   16.80810045298298
C         4.53033893397690    4.70718527221931   12.18494832398434
H         4.54272155739020    5.57596417638534   12.82797132253553
C         4.38953859834596   -2.26833239938818   12.33180551926934
H         4.99704033117004   -2.15687568683350   13.23959840270601
C         1.54324939703402    0.32136153331290    9.67187418934916
H         2.43966679656714    0.33214035764114   10.29180923383796
H         1.41494684444659   -0.68625608183533    9.26685691459137
C         3.65849225433921    1.46850093636480   14.49888790605096
H         4.57315845510343    1.80007032324427   14.02343262950927
C         0.32701013131337    0.69365160161552   10.51913362218452
H         0.44504410190258    1.73179610363950   10.85552329075409
C         0.09055223179513    4.59104336648843   13.99585394349693
H         0.32206796327878    4.67584381573984   15.05055901595475
C         4.72850277885674   -1.09586951291126   11.41410060311177
H         4.15134993227063   -1.17252019842104   10.49008357449006
H         4.46198574724474   -0.15698338064677   11.90888402555980
C         1.41720872119009    0.73902451958325   16.00954980403875
H         0.58663403161755    0.55087340233267   16.68002962783975
C         3.66316180044012    0.28866560992203   15.25190952238709
H         4.58673118779538   -0.27351207402686   15.36001287868389
C         3.66159026631004    2.58489235344320   11.58914362918895
H         2.96545540392343    1.76647969523133   11.77437506631444
C         1.36207306618274    1.80074897201370   15.09039260102849
H         0.47268944422929    2.41782462271853   15.07556725384354
C        -1.41059569450870   -0.05545740077386   12.75069881882450
H        -2.12461461948064   -0.48185077314444   12.03489446524083
C         1.62775061769431   -2.68864655854588   11.46137903999424
H         2.17152555637810   -2.36493885442522   10.57193166003227
H         1.56398091669549   -3.78026654208629   11.44549237751303
C         2.46177740267806   -3.56850764719099   14.09083594893140
H         2.52065667858702   -4.49390652200957   13.50408049484320
C         3.55815510680189   -3.57602111881647   15.15457803185628
H         3.56791156698114   -2.60987842174542   15.66127174311294
H         4.53507237961905   -3.72623602371008   14.69179655917287
C         1.69127252877157    1.29778429488237    8.50927494406779
H         1.84063578078791    2.30533791571549    8.90002601453336
H         2.56872673151162    1.03775530272313    7.91333463746431
C        -1.16977349381467    4.96110453486198   13.56131378041129
H        -1.91129439544224    5.29871072204086   14.27476183798634
C         6.21387406246768   -1.10720588332137   11.06850841712337
H         6.44492599013563   -0.27106893995462   10.40691194459403
H         6.80195031540920   -0.98093955719167   11.98014406159927
C         5.41585009198250    4.64454153603274   11.12263180752299
H         6.10621596190240    5.45908475238727   10.94584243651172
C         0.24177989186442   -2.05564514307539   11.47232090463738
H        -0.42052415166199   -2.60924503027405   12.13978912548336
H        -0.20492681663851   -2.07743206651770   10.47569083363036
C         3.73065471111532    4.42296146187728   15.95961076673367
H         3.96690612330991    3.38242640888442   16.14763536530239
C         2.77002634544589    6.13629659866656   14.63345996724771
H         2.22893481550946    6.45414197191135   13.75245924971289
C         4.53795138301147    2.50682863506707   10.52228341855856
H         4.53444916298813    1.64242428347401    9.86950167701780
C         3.32545052262514   -4.68308626753220   16.18058708823044
H         3.38118298641459   -5.65520552484785   15.68427035743119
H         4.11296970863525   -4.65008488044406   16.93627230424605
C         4.74608657800464   -3.59128138482808   11.65620904902892
H         4.52089589919029   -4.43556154819908   12.31065572306472
H         4.16269490150334   -3.70817505932970   10.74096062920732
C        -0.50927278039248    4.51196318386886   11.31482861992528
H        -0.73129728392424    4.50440105406709   10.25412593049649
C         5.42434470532908    3.54332518364161   10.28410410064699
H         6.11516449232249    3.49160064831196    9.45297286757507
C        -1.48020774654549    4.91750260451526   12.21297840630100
H        -2.46124795607137    5.21251750721343   11.86498594456518
C        -0.79912560259112    1.56208254435160    8.47089587869583
H        -1.69331204601607    1.49774212812974    7.84657815007881
H        -0.73267968998063    2.57995006248319    8.85827623696454
C        -1.67498241882516    1.43764024773618   12.94322187829924
H        -0.88275969663781    1.85851082400709   13.56347444830529
H        -1.64359780391590    1.96776082443363   11.99166749384318
C        -1.53753564408263   -0.78725583462415   14.08692945664190
H        -0.73380997287414   -0.44198246124298   14.74567738632555
H        -1.41288727329677   -1.86270629289191   13.94437368564158
C        -0.92521413659095    0.59231304809997    9.64650786126663
H        -1.03498810212078   -0.42402032284289    9.25917706008224
H        -1.82698644221769    0.83665775951930   10.20666815672425
C         1.08408231093601   -3.47439422408136   14.74500520385446
H         0.31249018849773   -3.54416980822486   13.97659667389601
H         0.99188151372812   -2.49308111974634   15.22319917133517
C        -2.88731142242753   -0.52471614853610   14.74801050934077
H        -3.68468366011343   -0.92387682816699   14.11583797389991
H        -2.93173210605691   -1.04511661083760   15.70741570252879
C         6.58810401035940   -2.42682021982384   10.39955170931044
H         7.65592919351337   -2.44258354370515   10.17461968460909
H         6.04696781407457   -2.52075502564494    9.45507869208757
C         1.95958540016904   -4.53253378227827   16.83977737368059
H         1.80629518559367   -5.33063091031847   17.56829058728110
H         1.91270128983256   -3.58006182193580   17.37206727486331
C         0.44113195659806    1.26044244293185    7.63635239895154
H         0.34259142697496    0.26937973302899    7.18468172451066
H         0.52805331594853    1.98704391764593    6.82662043577938
C        -3.02499306793768    1.68779009816838   13.60723991416625
H        -3.15919014525654    2.76161087924624   13.74438801988198
H        -3.82638308033593    1.32852609814358   12.95598865807009
B         2.55314844758638    3.72051074211474   13.66574382321570
C         4.14437991182107    5.36476064889903   16.88670586884238
H         4.68462630958638    5.05061798522133   17.77114098335922
C        -3.10564301202251    0.97039062561443   14.94898912302546
H        -2.33760173703317    1.36593789506823   15.61679890320640
H        -4.07775454847889    1.14706588545790   15.41326828587508
C         0.86762619556091   -4.57549324922758   15.77781838274852
H        -0.11350550884104   -4.45496032117325   16.24129958703893
H         0.88535940721207   -5.54927237724055   15.28176183622061
C         3.87046177173162    6.70536513171031   16.68656084922599
H         4.19200965928159    7.44449119862395   17.40790192657441
C         6.23372393475816   -3.60429517492943   11.30357292604724
H         6.82351103664767   -3.54478409250136   12.22143596235544
H         6.48417337083487   -4.54422895519333   10.80708906063022
C         3.18049162721236    7.08761614743330   15.54877084159444
H         2.96270499577773    8.13380137449705   15.37629262118308

