112
CSD_code = VIGYES | q = 0 | S = 0 | Stoichiometry = C55H52Cl2NPRu | MND = 9
Ru        6.98378780214528   10.96099527837601   16.84299656587383
Cl        7.87118282496954   12.59811546470885   18.27290644736910
Cl        5.13723707061540   12.37058291908520   16.45449937873929
P         7.82324890719297   11.97983938696105   14.97966895858445
N         7.28782079897749   13.49206033967530   14.50029215448860
H         6.62977778879617   13.88755290817575   15.17508737364414
C         5.53429718904569    9.11724986520892   16.96767887153825
C         9.75263030332255   16.25794817289943   14.20043850004353
H        10.26971720507627   16.96152086705255   14.83634480567070
C         9.99503522960772   16.26674199219886   12.83584632984133
C         9.50325836305744   16.19200172120533   17.04884134627386
C        10.76487329016533   15.62510517881367   17.20096380330418
H        10.97401672649664   14.67541652788894   16.73015937594261
C        11.77329690209499   12.22471670288417   15.91809408649162
H        12.35772487086399   12.23777737368335   16.82666899103812
C         6.53961295005353    8.82560512116238   16.03586231003881
H         6.28239609713959    8.45669633444693   15.05080115914413
C         8.85379415592226   15.36763211794304   14.76826938429980
C         4.07220389091039    8.87569501458805   16.68023600731078
H         3.48696097835877    9.44903463499542   17.40818501988240
C         8.47719740918916   15.44660243417590   16.22835315197604
H         8.43036611635483   14.42680488807536   16.63784533867039
C        12.39649613621854   12.35190544701095   14.68800824868551
H        13.46958229790059   12.46213817274772   14.63316830181201
C         7.27141716484303    9.56775806801704   18.63990729530279
H         7.54534505173937    9.79580204582996   19.66579716529628
C         6.01751086614427   14.05856839486895   11.73672374985579
C        10.39708658933988   12.09228040149048   15.98660638082223
H         9.89614238645474   12.02527552712740   16.94328727976796
C        11.74298995459086   16.26565061773637   17.93656579808044
H        12.71868658886910   15.81326787516720   18.04523619415458
C        11.00885126966121   17.20042655720980   12.24812638909415
H        11.04214928751330   18.13476687774623   12.80391374450414
H        10.78359410029000   17.41387024143655   11.20587949700127
H        11.99983437971914   16.74784385186624   12.29541634928766
C         9.73499019504260    9.28948357244952   18.12694622172035
H        10.40077000963582    9.33164136186002   17.26730517213572
H         9.94230325750687    8.37427235895925   18.68491140408340
H         9.94732020430070   10.13674239223353   18.77753381466589
C         7.90774099203449    8.96742615539742   16.38417275733473
H         8.66781538160484    8.68630358291690   15.66125270366790
C         9.24193330929943   17.41251101387971   17.65391666143458
H         8.26717047970281   17.86637679042358   17.55270044914459
C         5.92250106491952    9.49733327562646   18.28307059406482
H         5.15747960674981    9.66516861270299   19.03361806964212
C         3.64402243268917    9.32238229012787   15.28476594629835
H         3.89788535737964   10.36971635626997   15.13944656372148
H         2.56733536890331    9.21094006460366   15.18195892097825
H         4.12333114348441    8.73012133458073   14.50821170211094
C         7.29692100297583   10.88071130362715   13.61757089971809
C         9.63770136421451   12.07288843640496   14.82285553324775
C         7.08733591985302   16.04804388263083   16.30970069047675
C         8.09336944579901    9.87817681414160   13.07521025444913
H         9.12517683732438    9.78110238895608   13.38602104299371
C         9.26645520372627   15.40877274183611   12.02568705111494
H         9.41040850401016   15.44763257145989   10.95640728526221
C        11.47455455660648   17.48551638198072   18.53638891780352
H        12.23762125840890   17.98732524877168   19.11373664070987
C         5.96467392110317   10.99319269572003   13.22426260837213
H         5.35984149398526   11.77530036115013   13.66368285627668
C         8.29814209185931    9.30579847184004   17.69715427765807
C        10.26738040277033   12.20011090805260   13.58874973640282
H         9.68925921426366   12.19131778982673   12.67834001218583
C        11.64125565284541   12.34271277436451   13.52625843599141
H        12.12313989755065   12.44837399979848   12.56532838074143
C         8.18705300787630   14.45553265151007   13.94599125217334
C         8.35192542070732   14.51375718256996   12.55864121531690
C         7.94121544049628   13.59595906476465   10.24453738041848
C         8.80889920990531   13.50247880761697    7.59793179572871
H         9.14663892893399   13.46675318103603    6.57262385668433
C         5.10063085744031   13.28124924701760   11.03605042423637
H         5.45413417851192   12.43392113832273   10.46451479810357
C         7.63417648535128   14.62636561377139    9.36214052464368
H         7.04970253623652   15.46462843943019    9.71330919462069
C        10.22188708651434   18.05403814437559   18.39359814533620
H        10.00311185227378   19.00391595987932   18.86037884123844
C         4.87044184343967   16.05308074856853   17.24823972646541
H         4.14883200870488   15.62775960608615   17.92931037619437
C         6.72612524534468   17.11888221190540   15.49806687293047
H         7.45071575758359   17.54321918523202   14.81631604332922
C         5.55556803846077   15.15350375169557   12.45102510741992
H         6.24418298523829   15.78427630974525   12.99191984737275
C         8.67719231841373   12.51463013627724    9.77937129552057
H         8.90685362161440   11.69440542018788   10.44692443058381
C         6.14869841057566   15.52635706086972   17.19054596521508
H         6.41952015868488   14.70017051319323   17.82944173648509
C         5.44427192562536   10.12997726041953   12.27918509186380
H         4.41236023530338   10.22362893011287   11.97540606233776
C         7.47825643079749   13.64736096536726   11.67952585276707
H         7.52341130366908   12.62727233916678   12.07709311368343
C         3.78486107676390    7.38378677269014   16.89129592958179
H         4.34521958160568    6.78367599557868   16.17635756150112
H         2.72473807494178    7.18845456378823   16.75009801832474
H         4.06259890521321    7.07193622658728   17.89672821383968
C         9.11048938861354   12.46762521532249    8.46559447462445
H         9.68255156705391   11.61943150612120    8.11778379477475
C         7.56861401835148    9.01940992906174   12.12422126023652
H         8.19228678487657    8.24879408019338   11.69360563073627
C         8.06589656610657   14.58086618784288    8.04941986511351
H         7.82163428806309   15.38849894936276    7.37466397988839
C         3.29716060785777   14.66514088712448   11.79581914708469
H         2.24255224182981   14.89614780180921   11.82594296917779
C         5.44908520472057   17.64683768829803   15.55856366445535
H         5.18249659972681   18.47884979731354   14.92141924861255
C         4.51540280384415   17.11096174926177   16.42978151803430
H         3.51588713826189   17.51950650450854   16.47157143277389
C         3.75232501168904   13.58131216880591   11.06304399517069
H         3.05309246385145   12.96669618748074   10.51408981957091
C         4.20317772470685   15.44938408925810   12.48571726402069
H         3.86140547281782   16.29690230149898   13.06128781724472
C         6.24723324657529    9.14358961680835   11.72594332882397
H         5.84352743059849    8.46832265740401   10.98562075736871

