91
CSD_code = VIGYEQ | q = 0 | S = 0 | Stoichiometry = C34H50Cl2O2S2Ti | MND = 6
Ti        2.76705238696235    6.85477101035964   15.15651925933881
S         4.05090037463775    8.69218182647670   16.86139495688693
S         5.21521288101680    7.41241456162323   13.77967610086953
O         2.43025860035652    8.40358247947841   14.54226939513871
O         3.96918044954064    5.84514623730296   15.82095538530025
Cl        1.09052223803270    6.59891033126253   16.53935648031400
Cl        2.16953249501374    5.59164471674034   13.46565519601235
C         2.79276759974045    9.66086737106782   14.65854447524318
C         3.59291179617513   10.01923960027792   15.75456028678508
C         3.96334678423437   11.33143550085975   15.99480760505009
H         4.52758545291473   11.54698021596131   16.88572196494199
C         3.59522070451473   12.32507330136328   15.10304497586210
C         2.83886341956479   11.95567702487637   13.98855026214509
H         2.55865385789166   12.72718508960255   13.29226243110657
C         2.41820972221932   10.66218131483144   13.73731229339326
C         3.97747326692753   13.78490796369256   15.29484917334797
C         4.81391848597337   14.24874246970522   14.09380250162474
H         5.71154514717121   13.64064464253641   14.00151410777184
H         5.11271387066322   15.28629254703177   14.22542444306930
H         4.25421851494413   14.17214584146482   13.16615784196916
C         2.69874433882559   14.62764040291736   15.39610346598423
H         2.10556546773197   14.56013603644640   14.48876102563985
H         2.95151314391962   15.67282852353740   15.56020172567520
H         2.08877123546684   14.28439961230972   16.22863892709430
C         4.80004224856710   14.01199286127574   16.56613820781529
H         4.24176927084489   13.71698177005911   17.45111484744749
H         5.03912485757382   15.06933340329198   16.65769997848623
H         5.73650902277338   13.45968248099685   16.53249145991802
C         1.58660326558318   10.27078599589619   12.52388196633058
C         0.25688620013508    9.66250791774865   12.99534417861799
H        -0.28982495497126   10.37855206538265   13.60670093558855
H         0.41969056734959    8.75786844132943   13.58190646850257
H        -0.35494482220797    9.40111264562263   12.13475775024381
C         2.36933318570734    9.24015152557334   11.69417860867011
H         1.81433402461058    8.99534305774140   10.79144825885749
H         2.52925286917703    8.31580778742212   12.25158175626881
H         3.33951014895771    9.64304346249128   11.40702315537889
C         1.27084608320832   11.46893861880054   11.62303825996746
H         2.18109529044394   11.91853371116334   11.23228518399312
H         0.69657700962696   12.22252545735210   12.15733702417632
H         0.67484365246162   11.13237451107242   10.77778903566810
C         5.83250201946520    8.38749552710169   16.39584708251997
H         6.00209639719526    7.35136328362101   16.71099988754716
C         6.15218997063318    8.54634149003369   14.91756058945644
H         5.84601017462206    9.54060889834254   14.57492124280067
C         7.64630352419887    8.34167649495988   14.67074962177664
H         7.90906739881688    7.31350688034989   14.93024313827847
H         7.84566247059443    8.48530183739889   13.60795742009650
C         8.48980706331658    9.30024419681148   15.50432232768006
H         9.54729040983202    9.11940776724458   15.30650929562401
H         8.26512319997911   10.33067593555227   15.22124465082385
C         8.18316821735841    9.09624280798289   16.98188587948917
H         8.76891707969095    9.78614184320053   17.59100849013246
H         8.44850673652107    8.07840742099295   17.27488977253988
C         6.69741969781823    9.33326439486682   17.22944788422856
H         6.45117798141070   10.36169087410230   16.96037735748387
H         6.45713316224598    9.19094291106308   18.28369447742605
C         5.77251830271772    5.80889694782157   14.33919464918269
C         5.00928512106095    5.19132853067638   15.33897298809723
C         5.38341410495031    3.90463325527560   15.77900913556732
C         6.49854148149708    3.32746340934165   15.19743873457085
H         6.79293043796110    2.34554615801200   15.52576762863322
C         7.25805256740473    3.93582516691415   14.19607435316806
C         6.86732303901559    5.19063937050563   13.75978446373885
H         7.38220321189663    5.70930956780419   12.96934749758501
C         8.45913076613073    3.20158748093325   13.61984988774075
C         9.46378946851529    2.91713894388874   14.74545281583054
H         9.79237376263485    3.84868960103987   15.20192973007833
H        10.33540772541687    2.40291736301074   14.34672339922574
H         9.02707991453081    2.29337485025790   15.52010903854582
C         9.17328841268511    4.01346780390181   12.53597824414642
H         8.50984046374850    4.21466907419206   11.69869656698985
H        10.02383891389838    3.44758508540572   12.16188979534932
H         9.54525684878095    4.95561515340174   12.93224126283892
C         7.98675348092669    1.88109906274546   12.99637085401746
H         7.54081912513939    1.22733231353118   13.74042697903564
H         8.82733825615496    1.35872462878073   12.54481168065228
H         7.24497094219279    2.07567198668170   12.22513364801016
C         4.52565103594912    3.20353932718514   16.82387794109065
C         5.07612763421956    1.82423599073794   17.19990183427683
H         5.09465755451958    1.16066296596625   16.33853543895025
H         4.43135268228013    1.37570874431667   17.95238113210628
H         6.07747103912065    1.89983746415046   17.61882130054894
C         3.11174674051197    3.01546537278611   16.25020962133551
H         2.62784220490380    3.97530621568545   16.05378733415004
H         2.49531587468118    2.46608425282033   16.95856643677493
H         3.15512753191981    2.45546317992509   15.31737921592866
C         4.46367052679257    4.05788665162383   18.09947309748198
H         5.46645891651207    4.23187930582934   18.48783537912356
H         3.88280172297157    3.54225640548728   18.86081293052182
H         3.98791453039225    5.01938147080822   17.90745451030539

