171
CSD_code = VIGZET | q = 0 | S = 0 | Stoichiometry = C90H74Cl2O2P2Pt | MND = 4
Pt        9.52387279220112    3.38131256389528    4.79743745271663
Cl        9.52384761224316    1.04781543552336    4.79858225279708
Cl        9.52362547166138    5.71365244237824    4.80137891180779
P        10.55230438074153    3.50416937102956    6.86775009886731
O         9.77686678379350    4.41022946727826    7.94930293453352
C         5.95515705965862    2.78636815254943    6.89809741960710
C        10.91002910355911    6.95512985541583    9.18878179932597
C         7.84777542455344    7.47293897562434    7.49127009590969
H         8.00965038138639    8.53975553021190    7.46076578011637
C         7.52094858880809    1.29797743244520    9.13429060734273
H         7.65564458815158    0.67549597092682    8.26120523189719
C        12.21394347252661    4.27857844650629    6.85492105447317
C         6.56232009686546    6.97259447958466    7.32680933941053
C        10.57288472917161    2.05837967216722    9.26827267556419
H        10.08071450882290    2.91331688466976    9.70646061723976
C         8.92959050133677    6.62977588421283    7.67103675736745
C        10.12824009919917    6.59250390449715   10.27586376933789
H         9.06692131803996    6.43566016883514   10.14791493106189
C         7.30941202693246    2.66263141293105    8.97318962971757
C        10.34857917442174    7.13076701660872    7.79591750851405
H        10.95567408627527    6.50484252732053    7.12766596636676
C        12.98075536974375    4.25417592531788    8.01459855107198
H        12.59177043238561    3.78311305348114    8.90597097961050
C         4.74090937369121    2.79497580364124    7.57450934193046
H         4.71025896279885    3.08398368324193    8.61558647640796
C         7.23642236956125    3.21946885625521    7.56959803261203
H         8.06426622105132    2.76260108154565    6.99817228675538
C        12.70712344452783    4.90222468545780    5.71643771615366
H        12.10769371817860    4.94227283095852    4.81753036250278
C        10.89051296757708    2.05532900438006    7.91502865589520
C        12.27062661950268    7.16791073740380    9.38201931988305
H        12.88328092610885    7.46026705160758    8.54058925510749
C         5.98007094406742    2.38821862810494    5.56990278577089
H         6.93117990655690    2.35737228775022    5.04890000164619
C         7.42711841806729    4.72017567856612    7.53364562193515
C        12.05363096458072    6.63489930894076   11.70931765466264
H        12.49671211399573    6.50636654010068   12.68611651127650
C         8.70588666312053    5.25030878504791    7.69478098018785
C        13.95974642469203    5.48820149969233    5.73429476452318
H        14.33466191468892    5.97267932622170    4.84586900125569
C         6.36718238427416    5.60129705259373    7.35405010801235
H         5.37219094121110    5.20202027534259    7.22470643502452
C        10.50008951978775    8.55566322425397    7.31795568313327
C         7.56681499137363    0.73875425729696   10.39690263764216
H         7.73222537133524   -0.32284974724052   10.50801382617036
C         4.81685214337310    2.03115238118580    4.91316576896595
H         4.85207471498398    1.73558172724507    3.87424921036301
C        12.83850547888711    7.01155577932015   10.63173636344609
H        13.89697314109535    7.18189838813103   10.76639655178186
C        14.23487753691292    4.83523929874663    8.02610141817162
H        14.82773630237545    4.81037475582642    8.92847743891270
C        10.69807137069464    6.42819703996504   11.52714691598183
H        10.07779965547567    6.13891963110786   12.36352589951900
C        10.89097582818408    0.96715502237705   10.05625674932598
H        10.64042763010643    0.97828323755708   11.10682474971616
C         7.14306346639591    3.45713966171498   10.09861288314234
H         6.97087118008813    4.51844592687042    9.98707566580742
C        11.84634131744285   -0.13589601527348    8.15415444534870
H        12.33989508712780   -0.99135904251363    7.71703834390973
C        11.52199438787622   -0.13284921318067    9.50100634316949
H        11.76308408245422   -0.98661265197370   10.11729817836874
C        14.72764504644561    5.44865243886837    6.88533213985527
H        15.70924193422522    5.89955919398070    6.89651743182601
C         7.40893851634211    1.53877334161062   11.51672520119212
H         7.44872845273144    1.10407120521298   12.50492884696192
C        11.53784631521486    0.95576652079549    7.36413744412681
H        11.78458599524103    0.94595069680738    6.31409159541569
C        10.28884641337158    9.62819758969306    8.17584323316344
H        10.02415060230188    9.44186111833241    9.20741336525151
C        10.84369425710329    8.80726686261350    5.99573994655730
H        10.99876158017030    7.98166275712486    5.31700521660170
C         3.60954004884730    2.05698906823201    5.58927919877305
H         2.69759635409048    1.77933600893762    5.08155043293604
C        10.41744481318142   10.92773233445939    7.71818039902501
H        10.25009940074762   11.75393516402513    8.39449159431935
C         5.41725978066729    7.91242555984013    7.09742653667131
H         5.45699740629938    8.74369903579085    7.79882743176984
H         4.46344608287062    7.40249258240528    7.21081373451365
H         5.47260170110659    8.32589342428333    6.08984723355343
C         7.19863794904607    2.89774884674747   11.36401320724675
H         7.07319513641540    3.52719395066135   12.23348275285206
C         3.57617268375662    2.43160861666957    6.92226084797590
H         2.63720616822206    2.44239950115152    7.45679059447969
C        10.97058646569089   10.10649392821236    5.53816155405597
H        11.23172618531223   10.28896426186698    4.50593827824422
C        10.75829622413685   11.17017198292025    6.39814369440333
H        10.85705431565877   12.18495567184129    6.04115260082880
P         8.49554153737710    3.50414801354221    2.72824707358828
O         9.27092581602848    4.41023068026214    1.64667396024216
C        13.09255170220178    2.78628542761494    2.69805281252967
C         8.13779642431808    6.95516256351848    0.40743481649421
C        11.20013150198716    7.47288943290391    2.10478336584190
H        11.03826355157985    8.53970364310067    2.13544513339921
C        11.52706785641556    1.29800972448955    0.46158960056994
H        11.39236164878327    0.67545257044733    1.33462056059487
C         6.83389580185273    4.27853071689158    2.74127241739025
C        12.48556008721414    6.97250051302449    2.26933058299691
C         8.47505182019169    2.05830616306406    0.32785404208146
H         8.96724967948482    2.91324282337403   -0.11030917118267
C        10.11832535054127    6.62977563220775    1.92480294284200
C         8.91958822749311    6.59266308324748   -0.67968240950252
H         9.98092721476597    6.43591273921618   -0.55176532861412
C        11.73850729496001    2.66266323337971    0.62280780592285
C         8.69933181105794    7.13081309187309    1.80023799700447
H         8.09229479274260    6.50490149704705    2.46855429464672
C         6.06699259835785    4.25402048113960    1.58166492164668
H         6.45593263844460    3.78292534545704    0.69028901945836
C        14.30683925474961    2.79477329882336    2.02170871753795
H        14.33756688693145    3.08370452890804    0.98061194256190
C        11.81134804293827    3.21940817660332    2.02644122148076
H        10.98342654709484    2.76254235144885    2.59775479673772
C         6.34076112070535    4.90217913875910    3.87977167856706
H         6.94025004875560    4.94228866153094    4.77863935128129
C         8.15732145239116    2.05528196870535    1.68106130939520
C         6.77715471269838    7.16772451148092    0.21429398736577
H         6.16451068357414    7.46000718802660    1.05576189854636
C        13.06754186608566    2.38824983343377    4.02627964908190
H        12.11639010958588    2.35747319325538    4.54722353549859
C        11.62069814334066    4.72011573833353    2.06235002896959
C         6.99411256821549    6.63475666081136   -2.11301909030509
H         6.55101244472761    6.50622717946571   -3.08980689549922
C        10.34197838169989    5.25028640397712    1.90102815196786
C         5.08811275471074    5.48810361741000    3.86197237858541
H         4.71321561103217    5.97257722068137    4.75040852583408
C        12.68065334060929    5.60120036418330    2.24204551550410
H        13.67562422626459    5.20188799488776    2.37144476963478
C         8.54789679223406    8.55572261790964    2.27819648297084
C        11.48132240170587    0.73888333820920   -0.80106899961961
H        11.31599787169245   -0.32272439472162   -0.91227197845234
C        14.23070521982331    2.03118570792997    4.68311464598480
H        14.19540597670711    1.73569610844975    5.72205205893855
C         6.20923456529897    7.01128565283814   -1.03539484753238
H         5.15074669053906    7.18154351610294   -1.17001026952004
C         4.81284428791243    4.83501977330752    1.57022062400209
H         4.21992445888233    4.81007328096162    0.66788563211136
C         8.34971316982977    6.42825538946631   -1.93092753122003
H         8.96998762374253    6.13908106541491   -2.76733838407099
C         8.15708860790643    0.96703265749803   -0.46009514340977
H         8.40770760953582    0.97814283169222   -1.51064474653177
C        11.90486821884071    3.45727410630752   -0.50254299653231
H        12.07696203188773    4.51858663699963   -0.39091039072561
C         7.20164720824606   -0.13599004712502    1.44199738026394
H         6.70805760843028   -0.99143358722869    1.87910929933296
C         7.52611676333259   -0.13299198277950    0.09517566803875
H         7.28503106873298   -0.98675577687125   -0.52111406768770
C         4.32013600479485    5.44847964956954    2.71098922540891
H         3.33850407686781    5.89931251024417    2.69985744442874
C        11.63921878893574    1.53900007604135   -1.92081969399293
H        11.59952745213900    1.10437099793884   -2.90905927889681
C         7.51000003038689    0.95572930400218    2.23197563209828
H         7.26321009417162    0.94593671554390    3.28200994432169
C         8.75908029792370    9.62822186024422    1.42025052285629
H         9.02368227872637    9.44183598372646    0.38866620326360
C         8.20441731386893    8.80739445671668    3.60043444268297
H         8.04936943727341    7.98182789529880    4.27921437057624
C        15.43805788313597    2.05690207395461    4.00706850323506
H        16.34995751333550    1.77924749203930    4.51487475086363
C         8.63057122387700   10.92777960998965    1.87787472224946
H         8.79787093945142   11.75395012454144    1.20151182360235
C        13.63063738348370    7.91229506157452    2.49879808436255
H        13.59098773125921    8.74356226816276    1.79738152540767
H        14.58444407109616    7.40232905124252    2.38548590877715
H        13.57523404233971    8.32578285705623    3.50636642505490
C        11.84941060276770    2.89797944772676   -1.76799133545912
H        11.97485420643036    3.52750555148479   -2.63740304417797
C        15.47152099138758    2.43140027936251    2.67405439148521
H        16.41051895678287    2.44210305326210    2.13957738155863
C         8.07760271296159   10.10664600800150    4.05797314256326
H         7.81654652782473   10.28917021948541    5.09020943538088
C         8.28985111669503   11.17028435303280    3.19793231747820
H         8.19113827889333   12.18508778399008    3.55488554624045

