31
CSD_code = VIHCIY | q = 0 | S = 0 | Stoichiometry = C14H14Cl2Ti | MND = 12
Ti        6.46550825626458    1.59485113359869    3.44843057762140
Cl        5.13374554414505    0.04191797315801    4.31113699925967
C         6.68376859336793    1.97026905459421    5.80187377162810
C         6.53097658131781    3.22449049558294    5.19328517430592
C         7.65141952483750    3.44083460900729    4.35281368258083
C         8.47220039636887    2.30493659439782    4.41362380373290
C         7.88259113809619    1.37679356557936    5.32479395197171
C         8.39773394535418    0.09488998118017    5.76182110017568
C         9.54895647291997   -0.44459127471515    5.36932909320193
H         6.04409508260533    1.55506292852517    6.57007157375849
H         5.77735449768922    3.95696519665178    5.45186199209940
H         7.89960915780653    4.37252300617562    3.86249651517006
H         9.44235861719856    2.20364441308424    3.94541629951350
H         7.76476476099793   -0.43572895625349    6.46561814688547
H         9.86929627883524   -1.40554003575777    5.73185474823242
H        10.20096631986209    0.04306333750430    4.66420805703752
Cl        7.79661776390199    0.04114670180193    2.58613439939896
C         6.24786654502394    1.97028357712682    1.09502111589013
C         6.40045000686665    3.22457076977210    1.70350848711542
C         5.27983260897100    3.44093591481494    2.54374002189803
C         4.45905331318364    2.30505080558209    2.48275535798232
C         5.04893188688813    1.37681081882963    1.57186642942735
H         6.88772778277262    1.55502624393789    0.32700496411324
H         7.15409723253581    3.95705258790907    1.44503155193431
H         5.03153754747766    4.37263212934150    3.03399297399006
H         3.48877914522295    2.20378808157884    2.95072375807745
C         4.53396376706109    0.09482419597016    1.13486735721741
C         3.38260382161455   -0.44459964768217    1.52702912352501
H         5.16715410320879   -0.43586481560712    0.43132007791957
H         3.06242015888479   -1.40562260941260    1.16456373424812
H         2.73031914872044    0.04318322372392    2.23180516008538

