90
CSD_code = VIHDOH | q = 0 | S = 0 | Stoichiometry = C46H36IrN3O2P2 | MND = 6
N         3.02188375802674    6.26319998534488    8.47433066337890
Ir        2.23371814499565    7.33940902743059    5.27235705302211
P         1.78460939909217    5.40062559005692    7.86309676801694
P         2.83556868007352    7.88168499979594    8.47293414538289
C         2.61916755760631    4.92202025420819    3.80077761591212
O         2.68962333129067    8.56700673973245    7.14687169814702
C         3.04241531059751    8.73335585542191    4.07349258052375
N         0.67262723385231    8.56266531192298    5.11005106211535
C         2.50200510408593    3.76513968537146    7.53722458953306
N         3.81126773484989    6.13438434680637    5.42416055095694
C         4.47499959652081    9.87315937466257    9.43440562693017
H         3.72392572584616   10.52277708484970    9.00597383731342
C        -1.28357528805892   10.52575485507742    5.16379340507240
H        -2.04170795527121   11.29401687312176    5.19475781245145
C         2.22081100598828    9.87291977325995    3.91490146822787
C         5.25993517893022    7.64316765175870    9.86031047248959
H         5.10733688896323    6.57860050498197    9.76287392437781
C         2.34477266018066    3.83902230675711    2.96783924915632
H         2.95277206414095    2.94739720818933    3.01266935980930
C         0.55698439242465    5.14052620036653    9.18583179040082
C         4.30886574067992    8.50018628231857    9.33189215067226
C         0.90681519523534    9.76557003734091    4.53206601413381
C         3.73513569479158    4.97436375118805    4.73467304291382
C         1.43312512015811    8.32110885694949    9.54908717174939
C         4.69456417736393    3.97938124176016    4.91191070534037
H         4.61686120073775    3.05332925085552    4.36640415838006
C         1.28581974184964    3.89865662143637    2.08468780188899
H         1.07041751710153    3.05895876107517    1.44003935664089
C         5.73508008547327    4.18205958088842    5.79686352775581
H         6.47765225720167    3.41401483080875    5.95310516522743
C         3.64623173997141    3.32919667269228    8.18626828895602
H         4.11748842900161    3.98051088047445    8.90694324287390
C         5.81842191165703    5.39539399046506    6.46537655756642
H         6.62544000400260    5.60703925608162    7.14822420055703
C         0.95115149789558    4.52467149656580   10.36480847488639
H         1.95677952240244    4.13606062349786   10.44326643917099
C         4.83489094072679    6.34053077954612    6.24535508353245
H         4.87752126982297    7.30410645284871    6.73520260173710
C        -0.76809049657920    9.22926669198553    9.82838250236829
H        -1.61720609899534    9.76626486570411    9.42897211090031
C         0.34688946247495    9.01186501429684    9.03817897848843
H         0.38823592835481    9.37678130282331    8.02145722220872
C         1.40798233165049    7.85308677488063   10.85536468043481
H         2.26382232920599    7.31186321164937   11.23497665658037
C        -0.50667760594508    8.33389519222340    5.67871739712977
H        -0.64100747160619    7.35192868192021    6.10899136098236
C         5.59055529332780   10.38944941855339   10.06747336793866
H         5.72287286439729   11.45887069836067   10.14888799396839
O         1.07661132234125    5.92559478528036    6.65195371595119
C         4.74764130117583    9.87585722012963    2.79353334054955
H         5.73523941029499    9.87653796323495    2.35432651248557
C         2.66947234721247   10.98760419970946    3.20815506045744
H         2.03710264421749   11.85564445898061    3.09270656131358
C        -0.72476636110469    5.65302489906365    9.06978495531372
H        -1.01919574217548    6.12931307925141    8.14578630984871
C         4.30781149237080    8.76624378362545    3.49675898894990
H         4.96589394050055    7.91377942053466    3.59151090149196
C        -0.06564745377178   10.76402215162834    4.55608855070551
H         0.13856012457643   11.72222906191596    4.10667744937935
C         6.37654404700011    8.15932719862831   10.49384533135519
H         7.12088081859894    7.49403904008384   10.90856832389576
C         6.54057226257669    9.53104348127402   10.59864301707639
H         7.41235658041882    9.93335563106521   11.09449289204883
C         0.29605353408636    8.07232696381040   11.64484737645247
H         0.27206369549919    7.70537126513462   12.66083553846835
C        -0.79433103720809    8.75655545039407   11.12935141420384
H        -1.66636142164750    8.92066391509649   11.74595842040724
C         1.81454884289180    6.08214708649878    3.76795351756162
C         0.76070315882337    6.11471353891298    2.86160185140983
H         0.12917948426722    6.99045093236054    2.80017568584001
C         1.89157833617385    2.95800971771742    6.58880837120598
H         1.00888528260632    3.32251068941521    6.08240162674426
C        -1.51363788738029    9.27950077950672    5.73056828499902
H        -2.45177372730896    9.04629746199340    6.20863198930420
C         0.50100290622746    5.04015936370472    2.02607323853271
H        -0.32337233885656    5.08846888238254    1.32863078451498
C         3.56427452357264    1.28017181369505    6.94373111648795
H         3.98032612355344    0.30968250555331    6.71314061332283
C         3.93109703162476   10.98730710004301    2.64930810759816
H         4.28095981037636   11.84990268460707    2.10133974603826
C         0.06543021575031    4.42038908532903   11.42026509320791
H         0.37118187744126    3.93998562478599   12.33893799980236
C         4.17501365668305    2.08557674237626    7.89136563875316
H         5.06564262940737    1.74192566627818    8.39850141619423
C         2.42371297838643    1.71742623537389    6.28943885596792
H         1.95062549757596    1.09069418018819    5.54698742073431
C        -1.21513364340646    4.93815702688878   11.30288077808876
H        -1.90523255070189    4.86216838468998   12.13088152628459
C        -1.61064436352748    5.55296026622391   10.12728267398266
H        -2.60874845564070    5.95731541431508   10.03683907487942

