75
CSD_code = VIHHUS | q = 1 | S = 0 | Stoichiometry = C25H42MnN2O3P2(1+) | MND = 6
Mn        2.47297093942920   10.59112425937177    2.94275405735864
O         5.35030094971600   10.17364318741569    2.67130474962278
N         0.94744488083811    7.97683303216379    4.11898310345603
P         2.70325035149318   12.62653044568682    4.07156146119143
C         1.33423447858339   10.18528510366953    4.96166086012894
H         2.42713314518309   10.06285430647671    4.73766654210632
P         1.94776536944747    8.31705595220541    2.77955094253040
O         3.23656152384717   11.27514621345317    0.20679099646583
N         1.72590077011236   12.49465790701193    5.46365605025917
C         0.93426041062918   11.35938972514174    5.62114294979114
C        -0.24133912220375   11.32096702563372    6.36760538041743
H        -0.58950650570885   12.18220974463225    6.91048657084352
O        -0.38381748112117   11.18555373819448    2.61972753419039
C        -0.98968058093465   10.15722496894197    6.40257446175250
H        -1.89976387103666   10.14191696096183    6.98155481582937
C        -0.63628201944492    9.02702257328198    5.68603343963671
H        -1.28069884565320    8.16596170003814    5.71781566338225
C         0.53287899881586    9.03194178937828    4.92869625282414
C         0.37723106297044    6.64735313154372    4.32782055474554
H         0.66174736003323    6.01912525011743    3.48141600104439
H        -0.71515142624059    6.71160776186025    4.33511403142103
C         0.85406594063000    6.00743203156593    5.62740613169873
H         0.33663216483544    5.06345024362103    5.77513360729931
H         0.64086933062113    6.65269312621055    6.47633166054946
H         1.92219369842260    5.81111706692783    5.60008268447942
C         1.57608173170920   13.60724453128430    6.39957322386168
H         0.52158441759157   13.89178533231661    6.46783848905934
H         2.11997398100249   14.46444135465264    5.99781288857028
C         2.10026114537509   13.27130358389728    7.79182576713859
H         3.17471644701452   13.11112354349951    7.77951271709376
H         1.62004098903158   12.37596650236904    8.17944243570087
H         1.88526442922100   14.09564167029267    8.46627285647341
C         3.28749051938391    7.03957224598504    2.99572093724261
H         2.76425053358721    6.08122228618374    3.11453999004202
C         4.07256781695352    7.32860691924120    4.27430885499609
H         4.66453717107223    6.45822306771041    4.54975268282670
H         3.40874614283127    7.56337519311556    5.10727347576170
H         4.76071228659787    8.15846289031959    4.13235843833628
C         4.21277172158574    6.94383216597999    1.78785258031108
H         3.69692593178257    6.54297590488421    0.91892665689557
H         5.04102227254552    6.27711603647652    2.02005064059839
H         4.62828603505570    7.91673184116205    1.52992721477083
C         1.02607604661721    7.68915451902630    1.27994647897200
H         1.23849522809459    6.61417527868240    1.20412122473164
C        -0.48160700729409    7.90997663725525    1.36806002201406
H        -0.93743003851251    7.61526177091644    0.42476808620683
H        -0.71456979647326    8.95940126821754    1.53260273170403
H        -0.94330997406799    7.32354881716735    2.15704886001625
C         1.57595069123831    8.40112591012967    0.04491750648207
H         1.23268437527332    7.90250123036707   -0.85864202452243
H         2.66462649302499    8.41732049258987    0.03437315885984
H         1.21589234712501    9.42989784966819    0.02061587069599
C         4.34367939676733   13.08813103238970    4.82710325607802
H         4.13224888195168   13.93820327906333    5.48977140443744
C         4.86331473225820   11.92711968373596    5.67373095298791
H         5.26351365959013   11.13362503911278    5.04700264243208
H         4.07890988154626   11.51074110931630    6.30694955305207
H         5.66970235148495   12.27108110523123    6.31818455871395
C         5.37458630662037   13.52229745308527    3.79132046042628
H         5.49645551287918   12.76938325709820    3.01431891265896
H         6.33834169309569   13.65957019887644    4.27796485319896
H         5.10077082028079   14.46509664912716    3.32450269558888
C         2.18300212877374   14.21128095694745    3.22986790981748
H         2.71822470408510   15.02800569225214    3.73283541267859
C         0.67916848608217   14.46105411229731    3.30201026881912
H         0.43970075318870   15.34781475340312    2.71846724781896
H         0.33248756100312   14.62812449398936    4.31750128091158
H         0.12425728557382   13.62788697791152    2.87740866843605
C         2.62091706151358   14.14514966050988    1.76736140396383
H         1.96210221898680   13.47536557544043    1.21450710683368
H         3.64313076308656   13.78475033929230    1.66329484867559
H         2.55791488925949   15.13103805941831    1.31249568623534
C         4.23487107428140   10.29342569012634    2.91275837420798
C         2.88036982209420   11.02066863356444    1.26803063138191
C         0.72838655496747   10.95520015891678    2.74613960277416

