42
CSD_code = VIHNUX | q = 0 | S = 0 | Stoichiometry = C16H16MoN2O7 | MND = 6
Mo        4.51380770592773    8.15472157231938    3.84685783783635
N         2.11105833277412    9.91021638688735    3.72803009698697
N         2.40818487698794    8.61670720078733    4.02428963689422
O         0.72575300354740   12.14388236973586    3.44320926836845
H         0.88572169802899   11.19959078584156    3.65907524655649
O         4.28151680151993    9.91389804572281    3.12043953740327
O         3.83145314327673    6.45827986211789    4.04960961072250
O         2.06212160395535    2.63811705951141    6.28643086875503
O         3.44668221044708    7.78404517006097    1.42619027499508
O         5.74946068250332    7.79247249612067    2.81863714596130
O         4.89089974688523    8.54594704404889    5.40075654197474
C         3.08161397312608   11.96673614984406    2.94530003318462
C         1.87889293574454   12.69342957974714    3.04476049508176
C         1.88369014964886   14.04895936487969    2.70885238644779
H         0.95548351969156   14.59249319702267    2.78783699934522
C         3.04289574764767   14.66822568519772    2.29389298769037
H         3.02464706934599   15.71788766384365    2.04168127570372
C         4.23276235160798   13.95358815719212    2.20039157843392
H         5.13711466750699   14.44557463368764    1.87848356647169
C         4.24783993294570   12.61607175725484    2.52312980931034
H         5.15654380045664   12.03243104044858    2.46536961948278
C         3.16282467760496   10.54729511425923    3.27788845847137
C         1.47102185728874    7.91017473322461    4.57326156989054
H         0.50970536926223    8.38896372125596    4.76390821955012
C         1.64290625512192    6.55564568419184    4.97057073427466
C         2.86076902655750    5.87122503741729    4.71377268423998
C         3.01817220533774    4.54999877327331    5.14464425442951
H         3.96663345550753    4.07803182404820    4.93553475705350
C         1.99703281816135    3.90057220474187    5.82338505151188
C         0.78295662866445    4.57388618598288    6.06005562724849
H         0.00299834629053    4.04517427774563    6.58274725113566
C         0.61719178834977    5.86526279179672    5.64213460184457
H        -0.31244290103693    6.37903648533764    5.83603453420969
C         3.25702201620553    1.90654182810437    6.11624127809443
H         3.48461280211447    1.75614473477897    5.05715277744317
H         3.07945669560888    0.94206664642383    6.58871487459549
H         4.10028052386690    2.40213207888334    6.60475464134869
C         3.13378425884483    6.44762922853085    1.06559462760594
H         3.80680642906430    5.73574632086153    1.55503508543891
H         3.19906483045289    6.32615372111366   -0.02070635523581
H         2.10800167970796    6.25717421359594    1.38405217619345
H         4.38465728345646    7.92766917215923    1.21719833305103

