59
CSD_code = VIHQEK | q = 0 | S = 0 | Stoichiometry = C30H22BrClO2P2Pd | MND = 4
Pd        5.94358884508405    0.70305299119429   11.44891907484881
Br        6.98272315165804   -5.76252938311973   10.44704836842528
Cl        5.53661279969584    2.89099844223040   11.92187324807300
P         3.81418942474598    0.03381784170788   11.31913327021406
P         8.16675832028514    0.73946503400089   11.20508575882004
O         3.90119144501099   -1.59949596600718   11.18139989016623
O         8.61173706058169   -0.83424050315495   11.10754728328506
C         3.21513006706844    0.52375316990459    9.66463659352666
C         4.19333895803320    0.67150920781511    8.68368047612091
C         3.83835582152887    1.04243326783246    7.40035208496409
C         2.50563562181577    1.27195099189830    7.09428134595633
C         1.53180229995800    1.12659172599905    8.06851689246992
C         1.88168556028425    0.75323966754521    9.35502380370279
C         2.38414495946144    0.24961406664491   12.39702138006702
C         2.11766702743443    1.54787249969692   12.82441449849128
C         1.02943652821466    1.78801441931772   13.64204635917058
C         0.21555630468894    0.73679243356472   14.03693253429346
C         0.49019621223257   -0.55589055377108   13.61966944624275
C         1.57661130561756   -0.80645063614371   12.79995256354839
C         6.25678832412244   -1.21430120326419   11.12854191284994
C         5.18451708859804   -2.09656322072017   11.04828284829204
C         5.38287319428520   -3.45472829664638   10.84675080629264
C         6.68659551164733   -3.90822683379671   10.72750196465929
C         7.78328772620061   -3.06518977176895   10.80324028629285
C         7.54862860736878   -1.71326069135979   11.00790332591426
C         8.49798340021221    1.35704132636117    9.52000875542667
C         9.66146550536848    1.01247461019659    8.84251290442808
C         9.86642317985710    1.47563358807848    7.55595581693631
C         8.91751567750357    2.28532101396966    6.95009754449825
C         7.76059914964517    2.63456450827972    7.62793147500096
C         7.54569705391948    2.17002108287320    8.91419097405169
C         9.53315802140033    1.44767777884231   12.15014618797621
C        10.65616202860425    0.72095665862141   12.52159656417571
C        11.67003247330632    1.35047345515095   13.22221542413176
C        11.56052708984830    2.69168544935263   13.55191969796798
C        10.43239380206901    3.41216229538497   13.18905239449969
C         9.41470522207293    2.79227946085409   12.48949925420330
H         5.24285725788471    0.48638496200627    8.93835110038858
H         4.59840258791051    1.15738290839013    6.64166796725908
H         2.22638792255269    1.56800728826256    6.09408075349308
H         0.49501943837588    1.30770242238307    7.82643414077305
H         1.12467823128471    0.64409814743302   10.11852263001382
H         2.77464022234294    2.35185612026410   12.51828455191468
H         0.81768084173679    2.79240692955874   13.97685898802378
H        -0.63304385875254    0.92492943693101   14.67803712463471
H        -0.14338187112326   -1.37174148537066   13.93554550474297
H         1.80323054492009   -1.80967722758877   12.47112466719222
H         4.54525944423144   -4.13065855079382   10.78573283803489
H         8.78882020156594   -3.44223443910565   10.70844948784937
H        10.39223604731726    0.38076196721701    9.32791277995290
H        10.76775140126548    1.20890609001996    7.02392401514836
H         9.08346932784129    2.64656360830856    5.94584502452268
H         7.02601859140980    3.27016512660667    7.15596433070401
H         6.64857319247950    2.45420760334164    9.46593397487738
H        10.72723274856615   -0.32627681241546   12.26778436157663
H        12.54745642469168    0.79211253389982   13.51421616230659
H        12.35501217846308    3.17606116826024   14.10020248596872
H        10.34633043160396    4.45455856906419   13.45682611594397
H         8.51755392584032    3.33116370553212   12.21211798536795

