129
CSD_code = VIHREJ | q = 0 | S = 0 | Stoichiometry = C52H72N4Ni | MND = 4
Ni       -2.39124571757488    3.39956067334777    5.27639729227422
N        -3.61137699345872    4.86638107999582    4.73056960842890
N        -2.69207972583237    1.93364457317211    3.97463718751931
C        -4.83452495988927    5.02116867708186    4.03623465593422
C        -4.84142683305907    5.33014462837228    2.66860681084921
C        -6.04856526677418    5.67287871787620    2.07545688279994
C        -7.22174300867391    5.70363485123994    2.80541277766207
C        -7.21086816427228    5.34687596849919    4.14000447017999
C        -6.02759317940489    4.99457076249679    4.77067093542760
C        -5.99628705487353    4.65614388265288    6.24229332494463
C        -7.14674494640313    3.73852499898452    6.65255940701172
C        -6.00726877403520    5.94210262356713    7.07274344573356
C        -3.57198391585222    5.27785008805869    1.84770023924160
C        -3.82896476946806    4.66501938442557    0.46944949663370
C        -2.95662588109053    6.67004725483747    1.67037004568557
C        -3.01421187613396    6.01494684694732    4.95973889042627
C        -2.58291116591738    0.78475200216817    4.60430244106484
C        -3.14004609261861    1.78094488840039    2.64118775684505
C        -4.48121358041054    1.47332214827367    2.37213266710340
C        -4.83278151567569    1.13354917313005    1.07310553108598
C        -3.89190769394301    1.10398788811128    0.06130782491069
C        -2.58378236764353    1.45949494831600    0.32798069629699
C        -2.19094740356890    1.80949235182288    1.61057084963740
C        -5.53006286557349    1.52408535842890    3.46092012621825
C        -6.83269709513450    2.14030914263706    2.94657166847328
C        -5.82502005119735    0.13077854749002    4.02640651207039
C        -0.75257949870296    2.14785561912967    1.92332054577186
C        -0.13008988868242    3.06613765357592    0.87309937532751
C         0.06477353607995    0.86195936865867    2.07102791743617
H        -6.07336018064584    5.93715034469864    1.02989473176014
H        -8.14647321184104    5.99707340527215    2.33053033284554
H        -8.13345805234455    5.36453184204764    4.69910699664392
H        -5.05212105782073    4.13177167895630    6.44015816971747
H        -8.10915557447447    4.23380342152396    6.54953944897985
H        -7.15027166360176    2.83782511563124    6.04349748421850
H        -7.03587603138672    3.44558515440710    7.69386339368333
H        -5.14641333428890    6.56073892157219    6.82783146051081
H        -6.91101240610637    6.51562963301238    6.87503538722009
H        -5.96918877775246    5.70845951158708    8.13444005953116
H        -2.85344627236007    4.64227280003040    2.38029332827120
H        -4.42721288802129    3.76232390394878    0.55441886197364
H        -4.34390926814010    5.36800789913194   -0.18139855932125
H        -2.88677260808395    4.40320318529982   -0.00558462465642
H        -3.69278457806107    7.36099313887735    1.26338561270445
H        -2.59424997909012    7.06766947753198    2.61452562751425
H        -2.11602233830187    6.61754980505717    0.98111953294207
H        -3.48657329275050    6.95315032582526    4.67721874184116
H        -2.77119696263022   -0.15320434735173    4.08671528708683
H        -5.85434837623191    0.86998103550297    0.84835070445792
H        -4.18098829102196    0.81249987761168   -0.93780936192933
H        -1.85895278237226    1.44299220653513   -0.47101338076668
H        -5.14413777929208    2.15653444374152    4.27022182631841
H        -6.63295574422049    3.04491671865875    2.37946961654389
H        -7.37325077312087    1.44067422883579    2.31311192782870
H        -7.47987625840461    2.39963734522055    3.78079141881100
H        -6.08580011758147   -0.55664492768180    3.22365587999502
H        -4.96792286578309   -0.27063132161710    4.56024946100475
H        -6.66153283427712    0.18242650346387    4.72075180637944
H        -0.73919534349940    2.67164345457908    2.88819931049779
H        -0.05038010769378    2.57292569474916   -0.09253194675573
H        -0.72542627692467    3.96844672912045    0.75657279605891
H         0.87218026146651    3.35612849027544    1.17938909765265
H        -0.34008765221337    0.24333259470221    2.86919587886414
H         0.04325702005427    0.28853046580723    1.14615266299882
H         1.09968011531568    1.09555930301162    2.31115270932820
N        -1.17108659426444    4.86637061862898    5.82222082361112
N        -2.09041156642527    1.93363611050042    6.57813594173148
C        -1.76821986138327    6.01494288937122    5.59300175738026
C        -2.19953357805569    0.78474865545468    5.94845225264856
C         0.05201686058848    5.02114471517145    6.51663260270413
C        -1.64252507204369    1.78092329821473    7.91161323207147
H        -1.29584704475179    6.95314367856493    5.87551195936353
H        -2.01124054328719   -0.15321049768343    6.46603202732068
C         0.05882648302582    5.33018039645442    7.88424595282914
C         1.24513727491041    4.99445073165865    5.78228621210245
C        -0.30135946490911    1.47336416212025    8.18075662249236
C        -2.59169864770578    1.80936970681186    8.94216486675890
C         1.26593353887869    5.67290284222821    8.47746797773379
C        -1.21068298956282    5.27794444359645    8.70505617802481
C         2.42837666207489    5.34675515560746    6.41301975541196
C         1.21390793303185    4.65592240092370    4.31068559199197
C         0.05013701680561    1.13357744165104    9.47979896631884
C         0.74756592737799    1.52418768583072    7.09204788108562
C        -2.19893082462706    1.45937053704203   10.22477522342608
C        -4.03007638964187    2.14762336051671    8.62934147542258
C         2.43916347832029    5.70358985664253    7.74759309534888
H         1.29066330105962    5.93721594652036    9.52302149465937
C        -0.95383826456991    4.66512003209027   10.08333452889684
C        -1.82601289975122    6.67016231113839    8.88232343223061
H        -1.92920086196231    4.64238156126795    8.17241897674780
H         3.35100897182985    5.36434293916826    5.85398731194545
C         2.36439912845553    3.73832008234363    3.90048992473953
C         1.22487355488542    5.94183012282085    3.48016263987353
H         0.26976647331532    4.13150584622192    4.11282334382241
C        -0.89080283791673    1.10394123835083   10.49153256043019
H         1.07170203773638    0.87005611513296    9.70461562358261
C         2.05015455359204    2.14040357272319    7.60652097196683
C         1.04257901026070    0.13090549779588    6.52653063327214
H         0.36168650122481    2.15666068195511    6.28274323749665
H        -2.92381814954979    1.44279716909254   11.02371657723630
C        -4.65262514167418    3.06592359334133    9.67951372530634
C        -4.84735484631141    0.86167390098598    8.48167697214135
H        -4.04346835225498    2.67136125151871    7.66443653540874
H         3.36386945089482    5.99701858078612    8.22252930441352
H        -0.35560224860265    3.76241234469916    9.99841946787475
H        -0.43893658709673    5.36810323580272   10.73422242874899
H        -1.89607664089049    4.40332439463494   10.55828782734294
H        -1.08985054948583    7.36110466053809    9.28930540280637
H        -2.18835468414181    7.06776128116114    7.93814578943329
H        -2.66663510762172    6.61770860314093    9.57155287147372
H         3.32678690929365    4.23365003899946    4.00345785826206
H         2.36797600346816    2.83767161058537    4.50962335436251
H         2.25352568745205    3.44528726772918    2.85921136755671
H         0.36398947088742    6.56044830598987    3.72501014382794
H         2.12859081739347    6.51539776352503    3.67787054400885
H         1.18683815987604    5.70812422151117    2.41847835555623
H        -0.60177475854636    0.81244707508986   11.49066301573431
H         1.85036712048858    3.04499464348068    8.17363381524297
H         2.59066058125549    1.44075372028016    8.24000477033980
H         2.69740000635572    2.39975558261154    6.77236047515928
H         1.30335500251127   -0.55653238372814    7.32927081864016
H         0.18550671273512   -0.27051280204029    5.99265355963676
H         1.87910976230217    0.18259566376707    5.83220926428200
H        -4.73227299663998    2.57277040007403   10.64518053784653
H        -4.05735784195643    3.96828901695667    9.79596433944573
H        -5.65492673483384    3.35581039474847    9.37323102645864
H        -4.44243662687491    0.24302444744250    7.68355412951736
H        -4.82583554881783    0.28829393725764    9.40658191325265
H        -5.88226710284166    1.09520578190791    8.24150766949132

