43
CSD_code = VIHWEQ | q = 0 | S = 0 | Stoichiometry = C22H17BrN2Pt | MND = 4
Pt        8.43426560130049    5.36217993773665    2.38449493507321
Br        8.39382626080109    6.23848359121355    0.04008649854831
N         6.59839247077373    5.93597420126126    2.90498067832782
C         5.75886662065902    6.62975980134781    2.13727089851217
H         6.14550424186368    7.00680538691082    1.19940946431052
C         4.44496936770539    6.87463662593594    2.48928086568545
H         3.81076326958445    7.44365630851802    1.82940502903961
C         3.97227549297085    6.37172173996386    3.69251511861784
H         2.94914881270902    6.53340732430305    3.99663516395989
C         4.84138718200597    5.66343268267948    4.49886685810713
H         4.50454057020685    5.26690664669075    5.44278205688960
C         6.16011425998415    5.45787440934318    4.09673801036503
C         7.17490122932708    4.77836360216874    4.88996113758597
C         6.95515298607827    4.25400866251537    6.16344543866690
H         5.97267834009409    4.28504516665491    6.61151988060193
C         8.00113326140936    3.68887981535944    6.86348910646929
H         7.83394001649116    3.27976398716778    7.84922997191525
C         9.26947680256798    3.65888888651429    6.30431180470981
H        10.09275750692828    3.23483647588492    6.86234704026382
C         9.48671953991979    4.16410401139120    5.03317638882046
H        10.49072216475539    4.12202779048397    4.62735346766108
C         8.44997986447240    4.72096934266881    4.29352709840646
N        10.23132780552911    4.65445666153245    1.97375925860114
C        11.25395834666688    5.47131431871301    1.71621997650020
H        11.04623654218302    6.53487708245123    1.76663542037399
C        12.51296083048401    5.00695325780863    1.39003904642385
H        13.30807399858703    5.70578502672755    1.18708799030805
C        12.72612771215950    3.63689002499552    1.32572574347861
H        13.69616145315096    3.24040675253580    1.06852792738163
C        11.66577430032740    2.78902694530968    1.59334489900475
H        11.78042071793047    1.71748302289073    1.54340366999181
C        10.42357581465392    3.32399078939791    1.91268009415058
C         9.26243937331463    2.47706255426655    2.23802971553672
C         9.36141467348296    1.49486863186140    3.21676420707645
H        10.31479263689408    1.30338537949077    3.68700569291964
C         8.23519151974755    0.80080181633720    3.62185724300880
H         8.31645482774154    0.05524936661494    4.39848965038035
C         7.00587518279906    1.07160028360121    3.04545681602142
H         6.12643928702142    0.53812493162768    3.37458352396324
C         6.90699414919216    2.01214237988388    2.03339368079817
H         5.95602835401543    2.19620751951076    1.55575845685624
C         8.02617667660127    2.72271837178115    1.62868331360507
H         7.96215993492919    3.37322848588998    0.76202676108305

