56
CSD_code = VIHXER | q = 0 | S = 0 | Stoichiometry = C26H23Cl2N2PPdS | MND = 4
Pd        7.10702727980981    2.80848723032531    5.07139574636054
Cl        7.70305711916946    0.78178368286844    4.31305331124037
Cl        7.92958935787525    2.27912657638650    7.15709200244800
N         5.08633651289055    3.06942082551528    7.35734275304921
H         5.98743153778458    2.51588632985591    7.38653926887141
N         3.93433984448745    4.93596564528935    7.19006633661526
H         3.69160312464073    5.87106154345781    6.90990450035616
P         6.42468800812021    3.28853309675837    2.99178735054515
S         6.25295475616720    4.96630957130636    5.82147306105072
C         5.07737323604790    4.30645941835701    6.81653521333129
C         3.20300672483548    4.09485096572822    8.00527572421086
C         3.95234638367934    2.90963041945224    8.12017354612017
C         3.50239913471269    1.84494517184458    8.88090257405367
H         4.08808923128157    0.94370055587237    8.96335235780417
C         2.28477994572685    1.98118077658830    9.53275393117836
C         1.54891902554969    3.16404048039358    9.40708407877173
H         0.60477478298943    3.24139075741979    9.92502314112717
C         1.98744440539274    4.23503470402710    8.64921551675239
H         1.40708646709053    5.14024667955496    8.56641305076345
C         1.75316604168989    0.87299281897009   10.38923818969908
H         1.80290110970251    1.15681256525085   11.44011206690738
H         2.33141157778139   -0.03618203793173   10.25218207116297
H         0.71152229904125    0.66805253820349   10.14986266591215
C         6.87044122142339    2.33753222183799    1.51254851561095
C         6.24757214046095    1.10495864870078    1.33094323386177
H         5.51639645300176    0.76866092580329    2.05376748432761
C         6.58145273732422    0.31674811499719    0.24738583248529
H         6.10213900945269   -0.64111651477411    0.11015750631962
C         7.53917317042160    0.75013679372470   -0.65666341762595
H         7.80368885054287    0.13059700028712   -1.50081797577919
C         8.16416899417474    1.97201775401118   -0.47375439780007
H         8.91517096289555    2.30617346653228   -1.17472404606659
C         7.83672641692825    2.76721729023588    0.61063618961509
H         8.33164137081688    3.71758674613139    0.75628315371180
C         4.61088080239390    3.32352838592389    2.89188005463540
C         3.92442146024488    2.82719884848625    3.99732371153303
H         4.49836760801063    2.41730830669385    4.83475182510908
C         2.54174396371627    2.81682408195180    4.01343908760862
H         2.01209834804885    2.43619548791967    4.87496305906779
C         1.84015124746277    3.28944818166033    2.91559638533529
H         0.76027125291706    3.28841833838699    2.92516406389065
C         2.51958784460678    3.74099784623132    1.79462479222568
H         1.96693999010329    4.07976335034104    0.93051783595434
C         3.90287166850438    3.75235811288490    1.77422554140401
H         4.43444705395635    4.07261258429497    0.88911837038352
C         7.11544994988712    4.94113922195576    2.67154092671526
C         8.41992501882776    5.08462598252516    3.15285126850186
H         8.90037765719663    4.23438368636412    3.65632643997314
C         9.08612383261419    6.28531436252951    3.00760692418269
H        10.09417257906891    6.39549866840042    3.37866586500349
C         8.44817957996267    7.35518923985082    2.39665256186631
H         8.96293866886531    8.29842019945842    2.28964288164459
C         7.14844582291432    7.22208019779473    1.93967344362953
H         6.64973663981531    8.06290480921868    1.47990343088659
C         6.47715434303709    6.01741141572588    2.07375577017165
H         5.45689543389374    5.92613592841558    1.73253522325475

