75
CSD_code = VIHXUG | q = 0 | S = 0 | Stoichiometry = C36H26N10NiS2 | MND = 6
Ni        7.61421450824428    3.83731614906929   15.67705327588060
S         9.10122240398426    2.45176002689329   13.46564724063850
S         8.89747954759766    1.96856609044529   15.46277428107767
N         6.33916317060720    3.52479458138918   17.39893512978941
N         2.75251636586607    2.65500244971544   15.35574258091178
N         6.23986838504449    2.98415255654253   14.85683184915265
N         6.32796817899678    2.87998488732632   13.58205383353052
N         7.52018019012821    2.94122338527349   11.56441465287744
N         7.04260581422225    5.75294021820571   15.16794608719086
N        10.70536961989849    6.38765708772322   18.06657899676066
N         9.12421723464269    4.72702728729159   16.30315307085345
N        10.22786677681344    4.11634840003710   16.59516976538441
N        11.34403518246126    2.03590362908381   16.46615805854939
C         6.49645025751476    3.73936458618161   18.69757565782337
H         7.43439898368414    4.19016743460601   18.99625491701438
C         5.53384456770790    3.41650742710275   19.63761701840811
H         5.70628212170940    3.61131574851662   20.68372333159740
C         4.35059783585359    2.83761919555233   19.19630456572716
H         3.57722414939790    2.56767806759390   19.90005354439193
C         4.17531445341664    2.60578059374170   17.84814639542330
H         3.26905895812622    2.16547768367641   17.46899823491736
C         5.19042288619757    2.96383786309517   16.95514074572151
C         5.12969176061956    2.72635494954264   15.52440817751444
C         3.91739517402856    2.25073771065785   14.84579685386659
C         3.97757266194761    1.43967797669568   13.70799245623274
H         4.92266068927457    1.09124276372942   13.32590518312685
C         2.79792041863131    1.07828076189610   13.08413543919570
H         2.82072198600947    0.45680989727822   12.20098827942785
C         1.59304474726718    1.52381963889544   13.60650268215649
H         0.65239049256914    1.27163325993703   13.14305229171232
C         1.63442905157258    2.29990920411058   14.75476571181590
H         0.72649455634454    2.66391903838840   15.21940889548770
C         7.41023690657823    2.85349342640139   12.82781169718951
C         6.52495332746321    3.21764888459586   10.65797448022760
C         5.22836900711791    3.63481141136253   10.98022243924592
H         4.94939322605396    3.76121260370923   12.01542818910115
C         4.30898694913908    3.87928025453040    9.98010015990321
H         3.30906814146267    4.19735388201145   10.24206239731824
C         4.65682436632874    3.72022315341599    8.64809555013897
H         3.93103129893461    3.91254753249552    7.87156303664497
C         5.94192925735545    3.31690114731395    8.31850591052153
H         6.21876735936833    3.19485883867667    7.28110245688474
C         6.86913648476570    3.07140874572672    9.30941633339061
H         7.87215454381099    2.75365821887693    9.07100506195203
C         5.92907628099243    6.20719477191866   14.60632920959719
H         5.34328340599614    5.49454850002377   14.04045447872758
C         5.51581769303306    7.52307737601406   14.70475649869957
H         4.61200850098935    7.84538521126776   14.21461658051001
C         6.28368382138251    8.40637509484939   15.45572747566273
H         5.97571937865929    9.43422162138928   15.57637624955110
C         7.44145382633829    7.95039088464924   16.04654084952417
H         8.04977919948388    8.60125140099722   16.65420994081442
C         7.82237192442056    6.61348375913613   15.87330091636831
C         9.03209829925110    6.04165017393633   16.40726837913661
C        10.13674894508445    6.84348654104045   16.95349337746892
C        10.58697631793388    7.99791243423518   16.30793149019824
H        10.13099395887614    8.31991645011216   15.38413404619766
C        11.65088232802900    8.69009512316007   16.85731130914958
H        12.02776705909833    9.58198189991908   16.37722179672230
C        12.23126455030882    8.21681899502707   18.02447035967457
H        13.06316703807430    8.72839231556145   18.48220315435421
C        11.71756973183297    7.05538309430807   18.58218736713689
H        12.13473303092567    6.63679116067352   19.48917153774567
C        10.39390010465674    2.85223529034992   16.32184536431788
C        12.54659445373866    2.27981232235008   17.09040431243928
C        13.53556458041729    1.30491939412254   16.92932792241032
H        13.31460657267118    0.44354504797757   16.31836892469985
C        15.02788438008448    2.57481151823603   18.31174289446822
H        15.99143456948535    2.69112692687521   18.78624258970768
C        14.76664254534558    1.45765112985504   17.53321833535923
H        15.52838125527902    0.70281711572127   17.40068508142064
C        14.04780841799788    3.54077613273095   18.48244229310218
H        14.25123796106801    4.41018471693231   19.09207582597491
C        12.81361095238666    3.40388299605337   17.88001977367419
H        12.04626491740572    4.15127195126783   18.01340474850456

