87
CSD_code = VIHXOB | q = 0 | S = 0 | Stoichiometry = C45H37CuINP2 | MND = 4
Cu        0.66641166685907    4.74622961269410    5.20797919417187
P        -0.39339304887890    6.44210956039123    6.36199751040910
P        -0.54856571177450    2.81869895895042    5.73453541124812
I         0.98040156597163    4.99338005821179    2.74371727711476
N         2.30585077902052    4.59372655845134    6.37767568640339
C         2.30028132727702    3.80598490197099    7.42805131084456
H         1.71150587848348    2.89730140247696    7.35377046921726
C         3.07409451371096    5.70235963473690    6.40294517508081
H         3.06635257571787    6.29435886536880    5.49868410699942
C         3.82692665080910    6.06077605525554    7.48345641000256
H         4.43218933218644    6.95403040429629    7.45770473481273
C         3.80022812362027    5.25940798310538    8.64842839945451
C         3.00565793602689    4.08151722461289    8.61246881907653
C         2.93875985905558    3.25144643783130    9.75028857791035
H         2.32508539017404    2.36283376977816    9.71067641304456
C         3.63425095322821    3.58414603760230   10.87927006495076
H         3.58411389527958    2.95358116204997   11.75472438088834
C         4.41985943273948    4.74806949617476   10.91715206407788
H         4.95900861340700    4.99039459004170   11.82112665257223
C         4.50472960491476    5.57070808168357    9.82595115771891
H         5.10600347554741    6.46787288022767    9.85286105913381
C        -1.96651735384657    7.12199928142776    5.73475112993802
C        -2.31855262746399    6.83562009068281    4.42181108525977
H        -1.68164520106716    6.20168793560501    3.82232853516792
C        -3.47777768824489    7.36502446424167    3.88361508986851
H        -3.74465514025959    7.14132837391085    2.86194742098679
C        -4.28751696295184    8.18039724447145    4.65416637832860
H        -5.19633076869728    8.59033372811578    4.23850142975432
C        -3.92820703187735    8.48383271937465    5.95885923096318
H        -4.55338289283727    9.13335017188354    6.55485667535138
C        -2.76724599552809    7.96644670984753    6.49904764501908
H        -2.48005471771307    8.21661654418852    7.51140286337444
C         0.55469984487468    8.00189868873959    6.38781826824944
C         1.17945552735877    8.34437273769916    5.19080623402621
H         1.09066585701534    7.68722096184516    4.33585888276970
C         1.90514125266306    9.51616782198632    5.09337395718951
H         2.38814895836198    9.77284744084183    4.16239613748568
C         2.01201359820000   10.35457651778403    6.19117626821657
H         2.58321579866308   11.26858876318325    6.12120820250659
C         1.37997745318792   10.02410811666282    7.37875414582551
H         1.45320140956006   10.68345198855290    8.23198442291939
C         0.64780076754614    8.85493030340281    7.48123952280950
H         0.15295191366990    8.61111167760880    8.41119966943629
C        -0.73401890224319    6.11317258484872    8.11415999608277
C        -1.98802037409831    5.68734320108999    8.54776075757868
H        -2.81627936183580    5.66879125984175    7.85267571044059
C        -2.16952061852896    5.29018790176466    9.86003744184685
H        -3.14717725420252    4.97202362352125   10.19245624720466
C        -1.10243347565554    5.28771761550925   10.74489028314194
H        -1.24885588342661    4.97475461317750   11.76824425045598
C         0.15457862768368    5.68146398223266   10.31326556809512
H         0.99441528693952    5.66800188086852   10.99350575482916
C         0.33919083179238    6.08708946529755    9.00534899701064
H         1.31889204748813    6.39815802333382    8.66741715360933
C        -2.26742931699876    3.22797952183451    5.30642170736437
C        -3.25022265672387    3.37500544847514    6.28002419910062
H        -3.03016386343535    3.12635055441646    7.30996265748152
C        -4.50894671779670    3.82747285201272    5.92820762065153
H        -5.26963935288010    3.93899781096233    6.68823024099724
C        -4.79724031182605    4.13463816020563    4.60895566975517
H        -5.78209060145480    4.48695123724277    4.33992475493286
C        -3.82085456888680    3.99042895833698    3.63666110486657
H        -4.04077957414967    4.22718434380363    2.60629815838503
C        -2.55720773722168    3.55173221940417    3.98173154615782
H        -1.79030525627277    3.45683191538944    3.22487522663581
C        -0.78521031336941    1.74530131633598    7.20432590237232
C        -0.70909469399806    2.36630721020452    8.44874528412157
H        -0.52512762289000    3.43113785780920    8.50041594702670
C        -0.86234607386646    1.63454018411310    9.61096856996824
H        -0.80669196503689    2.13249095548546   10.56854452724747
C        -1.07826163384004    0.26811255096061    9.54046253967943
H        -1.19435834294027   -0.30938940365676   10.44582445405778
C        -1.13763411468500   -0.35833973851115    8.30595217089505
H        -1.29994595754683   -1.42506733065321    8.25024985128973
C        -0.99021536083348    0.37192555443736    7.14023068671316
H        -1.03271051566547   -0.12616160585095    6.18235799130388
C        -0.09640016122414    1.60065081326013    4.46047821858133
C        -1.01429505160895    0.78426408105529    3.80587524039989
H        -2.06905377746102    0.86093694860136    4.03524157426467
C        -0.57404007216269   -0.11251267394828    2.85019555557858
H        -1.28786701039256   -0.74261551130575    2.33923462009215
C         0.77411877886509   -0.19986524094667    2.54096465619133
H         1.10865769916681   -0.89577923445180    1.78598165871755
C         1.69005733787080    0.61148079448501    3.18902859073020
H         2.73883087279174    0.55455645141590    2.93876731281077
C         1.25621009628464    1.50917818435672    4.14628967556252
H         1.96184810243652    2.16432470584389    4.64254185551164

