109
CSD_code = VIHZAN | q = 0 | S = 0 | Stoichiometry = C58H47O3Ta | MND = 5
Ta        3.84625307225972    0.90312189139507    3.28308238792040
O         5.47163398422688    0.08045476908913    3.17465039968970
O         3.93991414094272    1.60520073011619    1.46520692887227
O         2.23449912653000    1.58961412799053    3.74059985757942
C         6.34419258218219   -0.57027214620253    3.92466212825076
C         7.05305921895472   -1.67427717321898    3.40768402621636
C         7.86982443851087   -2.42245125203935    4.24492560176475
C         7.98619603151514   -2.10097072830152    5.58376977313935
C         7.31036697495341   -1.00765032931854    6.08822829938106
C         6.50358555688738   -0.20325060907567    5.28256045641565
C         4.86240913817346    1.77175011973512    0.53358490559277
C         6.08378375608710    2.41698198854670    0.82287749662643
C         7.04363859337579    2.56031398303701   -0.17122364894299
C         6.82345890346155    2.08793546437380   -1.45201310580148
C         5.64361063258397    1.42537674479993   -1.73500048249672
C         4.66629430250698    1.24935843457041   -0.76376744332795
C         1.16870050506723    2.11756732663336    4.32979905862358
C         0.40978287566974    1.37125713086116    5.25411179746134
C        -0.70136383964988    1.94270108550403    5.85829735859150
C        -1.05711709526974    3.25462489320788    5.60275450656364
C        -0.30065107795586    4.00439633168988    4.72205197693642
C         0.79549550349322    3.45264313683642    4.07099804377938
C         2.96935640751539   -1.21954331569320    3.18083145107857
C         3.10740831873957   -1.78857664202406    1.77927516282035
C         2.42682903711008   -3.15494346260409    1.61501807141968
C         3.06691099271979   -4.24966462997288    2.45884939325967
C         6.90819095624812   -2.06780049766836    1.99617982642709
C         6.99309979775274   -1.12952102469448    0.97205158405212
C         6.89895600428339   -1.52457402950410   -0.34976639446939
C         6.69559001566524   -2.85654524691967   -0.66860655209585
C         6.59856138901701   -3.79726320052507    0.34318215811798
C         6.71362438133251   -3.40771363313192    1.66427051281085
C         5.84290482745439    0.99152179385137    5.83895344296331
C         4.67604644334681    1.54407937317429    5.27314497909654
C         4.12725623648043    2.65722189990432    5.91402314382370
C         4.66154004128800    3.20938179782785    7.06405970989066
C         5.83269241418063    2.68307633709166    7.58064300925654
C         6.41685506458493    1.59718833355747    6.96497963387280
C         6.37035629762266    2.93123201040224    2.17664173514654
C         7.54718755864988    2.56975377562119    2.83063263611314
C         7.85931707336364    3.10881683500571    4.06481603884065
C         7.01480665022424    4.03299531368430    4.65618360850624
C         5.83847520221695    4.39223654498655    4.02074890035583
C         5.50872891720664    3.83677403253859    2.79619185321973
C         3.45494158305795    0.47295126344150   -1.08202299478789
C         2.18317707788076    0.95453033254098   -0.78749522851342
C         1.05898778124942    0.20271638237309   -1.07779298535025
C         1.18734764443582   -1.04218817798294   -1.67013501632188
C         2.44802080151014   -1.52677829763221   -1.97714621270701
C         3.57226451586249   -0.77641856587363   -1.68787342601396
C         0.78744295007792   -0.01624879515650    5.59435165754551
C         1.99453133243943   -0.28390886027777    6.23486286802457
C         2.33731746671765   -1.58504696788516    6.56097625208306
C         1.48016126305096   -2.62939690892144    6.25669922168466
C         0.27013937159085   -2.36799509572025    5.63540802227917
C        -0.07708981378030   -1.06912047572823    5.30925569201577
C         1.55967581247176    4.26669397605087    3.10939619365658
C         1.79140611144916    3.79640108120696    1.81959876847974
C         2.45486088847572    4.58574416933023    0.89671996060944
C         2.90441867866162    5.84695639741412    1.25426608562162
C         2.68662020513029    6.31740877533101    2.53897153591717
C         2.01508600374567    5.53478761456288    3.46038441949541
H         8.41457278903703   -3.26107167187857    3.83679005786004
H         8.60238976523850   -2.70286923491936    6.23475589891172
H         7.39173161695487   -0.79261890524177    7.14241754467843
H         7.96821430272439    3.06566495078424    0.06954869839528
H         7.57062467385883    2.22513545460967   -2.21920867352707
H         5.46192342865407    1.03969253254979   -2.72845998637539
H        -1.27570299659046    1.34771939927103    6.55352684399103
H        -1.91682280198234    3.68983213740833    6.08882696418340
H        -0.56870184744744    5.02926033661926    4.51014369541266
H         1.91265787731806   -1.20835210416342    3.45164742693573
H         3.49307717914820   -1.85863513655791    3.89656358014179
H         4.16478784791623   -1.88707811831913    1.51632007122504
H         2.64304942748338   -1.10257941071357    1.06604539416417
H         2.48170842355239   -3.43728763152558    0.56099025349720
H         1.37088842103797   -3.06126070177579    1.88021333822257
H         2.94164933885505   -4.04538810060137    3.51925490249161
H         4.12990877487893   -4.31601751363428    2.24077972510989
H         2.60793933889746   -5.21189460377560    2.24114892528930
H         7.15031462824658   -0.08903334579034    1.21104646911010
H         6.99196723498953   -0.78433462360116   -1.13036503225910
H         6.61852334546245   -3.16378996105344   -1.70165372460884
H         6.43786248819030   -4.83815900025701    0.10109941704299
H         6.64169611753841   -4.14321336895676    2.45318542347554
H         3.23253297919870    3.11040712276623    5.50308219836987
H         4.18459124442531    4.05586847010034    7.53714106094742
H         6.29402151458288    3.12338426470030    8.45307305741749
H         7.35379601261838    1.22779778994614    7.35359512087440
H         8.22225073925098    1.86387769201750    2.36662340139870
H         8.77225689140117    2.81482465619208    4.56219649818761
H         7.27147873085189    4.46852000543236    5.61000408237797
H         5.17903585491095    5.11988388738121    4.47067762118031
H         4.61036598123686    4.15016033689682    2.28406203261978
H         2.07986036668685    1.93102624264320   -0.34287745853850
H         0.07786900120780    0.59135804173583   -0.84391467133235
H         0.30954916144077   -1.63063763078394   -1.89374776421714
H         2.55518546997395   -2.49613665207393   -2.44267726545658
H         4.55321351161385   -1.16747926787172   -1.91140378044042
H         2.64726239147796    0.53270672297408    6.50756396798934
H         3.27577329165980   -1.77971825219339    7.05962888359821
H         1.74946286074163   -3.64446410383180    6.50949158421298
H        -0.40512349479845   -3.17903391816785    5.40421465100953
H        -1.01922935492443   -0.86407807154669    4.82077123125509
H         1.41924726512681    2.81880109153518    1.54626012419347
H         2.62781463789567    4.22164603308114   -0.10621833573076
H         3.42603991104034    6.45945874025196    0.53369925787002
H         3.03981739153464    7.29864760478101    2.82114878620147
H         1.84509724132661    5.90111168334397    4.46291946155999

