38
CSD_code = VIHZUH | q = 0 | S = 0 | Stoichiometry = C17H15N5Pd | MND = 4
Pd        3.94536961620792    3.44921237244202   13.96768595024098
N         4.59849475529776    3.79223924064594   11.94148530140235
C         5.57265128965118    4.72203629028877   11.95000296156773
C         6.53340987449327    4.76617526584711   10.93910958024147
C         6.47258528197618    3.84571200893262    9.90882296660956
C         5.45612962208219    2.89984081746357    9.90983968621050
C         4.54518373340473    2.90781607171920   10.95309186045452
N         4.77775109435484    5.29567256551656   14.13466527987728
C         5.52570821385211    5.66743504835321   13.07215276875382
C         6.16623388859840    6.90540465210668   13.03701663559707
C         6.03528153537058    7.77481640125309   14.10268212278931
C         5.23604013920488    7.39399951720760   15.17371921443622
C         4.62868400269856    6.15406903406106   15.14228384581792
C         3.92088370713278    3.00000951802343   15.99092342294222
C         5.35424295630300    3.24131405008577   16.28001753428453
C         5.79359232629379    4.13494634794286   17.25832901601749
C         7.14295247146994    4.38080707743861   17.44486889547121
C         8.08615344898345    3.73674931873655   16.66488593349617
C         7.67158040665098    2.82910741627510   15.69945993812425
C         6.32733005895919    2.58194708421749   15.50856504815219
N         3.04299097915987    1.74474168452678   13.52947220360257
N         2.39190597982003    0.97355481943409   14.12724550378703
N         1.76023010394714    0.14124449613960   14.57223563271968
H         7.32851718480284    5.49361644060370   10.97028154535471
H         7.20922709817652    3.86180880638818    9.11994264288887
H         5.37563840154064    2.16850019434766    9.12196424993457
H         3.73526801134147    2.18892792640952   11.00653051848277
H         6.74706144897988    7.18992604660930   12.17449021271565
H         6.53036645445918    8.73340205209871   14.09376690610753
H         5.08781591432480    8.04821279351767   16.01747784918993
H         3.99337241933005    5.83224299624297   15.95711267520908
H         3.25484784105758    3.61161619221619   16.61391539462366
H         3.67072504644078    1.94136694887622   16.13312799255114
H         5.06972555719016    4.63406003219533   17.88848938887119
H         7.45941705431143    5.07909476147526   18.20685990894319
H         9.13827160667073    3.93331628046587   16.80864943512235
H         8.40576628682383    2.31570993497215   15.09444856410965
H         6.00019418863593    1.85484749492056   14.75798141329344

