49
CSD_code = VIHZET | q = 0 | S = 0 | Stoichiometry = C22H18N4O4Pd | MND = 4
Pd        4.10751220938503   -0.00043907250165   10.03585775031341
O         4.97975735759127    2.22078204990257   11.24657659049469
O         5.98443884232458    1.78392522886598    9.36968415151886
N         3.10693488430258    0.91098410841175    8.43974534763318
N         5.15446576064767    1.53269802774098   10.24416165248178
C         3.78933631232975    0.96435078683562    7.30009922792503
H         4.76893371438987    0.48798742010981    7.29753061992193
C         3.29249144378767    1.58775724550410    6.15631870125929
C         2.01605720135034    2.14611089615108    6.23213924002698
H         1.59327380748780    2.64835738081560    5.37484154672550
C         1.30995912298393    2.07263724432336    7.42081148019981
H         0.32344082544950    2.50018573149425    7.50507928432808
C         1.89189991214996    1.45106981702618    8.51305398411837
H         1.38149833069506    1.37977340179191    9.46926919267223
C         4.10461780360400    1.65789667881742    4.93602701285119
C         5.47387545295491    1.90462192807060    5.02358770317527
H         5.92938603875783    2.06272641943225    5.98979665805694
C         6.24116821812729    1.98108266021091    3.87626707512643
H         7.29956916412241    2.17986958987606    3.95289773154231
C         5.65688942796602    1.80332215346280    2.63280437493340
H         6.25927694536667    1.85886520314696    1.73850318327190
C         4.29773664000391    1.55347540333997    2.53884039526203
H         3.83982973220375    1.40972157275499    1.57143204756796
C         3.52330979308542    1.48615488122163    3.68203390170674
H         2.46730766776002    1.27208545786734    3.60520009680421
O         3.22857292087638   -2.21883336937158    8.82591289133229
O         2.23060517646213   -1.78439639801035   10.70693036169229
N         5.10606085289222   -0.91030634478025   11.63436728865090
N         3.05792743898062   -1.53229058764936    9.83008442206907
C         4.42371182083786   -0.96390852897067   12.77411785767020
H         3.44412933425123   -0.48747586137974   12.77691121121095
C         4.92061999815467   -1.58765545499322   13.91773729185350
C         6.19701337170202   -2.14606654076674   13.84169616852347
H         6.61983588440026   -2.64858345529805   14.69882209756185
C         6.90302631832311   -2.07229803480722   12.65299999159549
H         7.88951417708402   -2.49987916314875   12.56854271829452
C         6.32105648457392   -1.45043978554779   11.56095819680226
H         6.83144280535030   -1.37888238841711   10.60477092423853
C         4.10859247523692   -1.65807549228926   15.13808958688940
C         2.73934979586539   -1.90487407577464   15.05050438035220
H         2.28387840274424   -2.06291937940885   14.08426846511679
C         1.97207464342073   -1.98152721793637   16.19782195414949
H         0.91368141349192   -2.18035032388342   16.12117667616796
C         2.55635550148815   -1.80390058560607   17.44130488709512
H         1.95397041684259   -1.85956917223024   18.33560125529507
C         3.91551151765867   -1.55408855049164   17.53530405202575
H         4.37342090901403   -1.41050090505024   18.50273772198133
C         4.68993209150890   -1.48658759884943   16.39210856733464
H         5.74594964001602   -1.27259300000996   16.46897208217699

