45
CSD_code = VIJBIB | q = 0 | S = 0 | Stoichiometry = C22H18I2N2Pt | MND = 4
Pt        7.11550549563035    4.57707685135123    6.28719358831928
I         9.63052097419278    3.89398604133925    6.09481677824626
N         6.93889117441265    4.47093767715607    4.34464337062277
C         6.53780780769490    3.34232479270595    3.76131823979945
H         6.32462356781011    2.50590715640250    4.42158255986610
C         6.39712644117675    3.22527598944853    2.39576540159026
H         6.08388199698386    2.28597632885737    1.96872371701479
C         6.68685298385967    4.31800791116977    1.57607432601529
C         7.10802307238109    5.49100771430700    2.20591144819436
H         7.32987571640384    6.37483332734630    1.62937141337345
C         7.21659786752058    5.52529674853742    3.57897025606107
H         7.53596680259518    6.42700748509125    4.09468373021467
C         6.55490395648240    4.23746005266209    0.11865148774899
C         5.48328350348037    3.55797186898704   -0.45767899521835
H         4.73246765348093    3.10797091769958    0.17510338415953
C         5.35768802597436    3.48894138008506   -1.83231202299767
H         4.51798678874555    2.96842931424757   -2.26819934689793
C         6.30434608172543    4.08514404166322   -2.64909041480855
H         6.20708841049368    4.02617128912254   -3.72268416363069
C         7.37613157132909    4.75719907547122   -2.08484720872144
H         8.11908173489444    5.21885178933018   -2.71803993136038
C         7.49938310632298    4.83939008495218   -0.71073955499074
H         8.34700099242352    5.34797289358747   -0.27539981918329
I         4.60233201150038    5.26528994915932    6.48215018730352
N         7.29237135517922    4.68726165862123    8.22961622886221
C         7.69399438005082    5.81587777304038    8.81280942609352
H         7.90759774269660    6.65218398909041    8.15251837939832
C         7.83481309140155    5.93304530979331   10.17842197355918
H         8.14832308144049    6.87230813310322   10.60536765575616
C         7.54479846344605    4.84052349685955   10.99835181431992
C         7.12330181759443    3.66758150238438   10.36864752156827
H         6.90124685959028    2.78386921559063   10.94528493475545
C         7.01455467443138    3.63315167464019    8.99560554812671
H         6.69500297100552    2.73143810624167    8.48004618719855
C         7.67670697650403    4.92111473129076   12.45581231378060
C         8.74815673284923    5.60083257674456   13.03221675731596
H         9.49892461950643    6.05097252857342   12.39948433716356
C         8.87369971489135    5.66989094957368   14.40686168563700
H         9.71324245456192    6.19063943758327   14.84277437553185
C         7.92720371026609    5.07342031964845   15.22363047204108
H         8.02440829355035    5.13243898399534   16.29722894322844
C         6.85564870469480    4.40103354804549   14.65935607570969
H         6.11284073026983    3.93912902887449   15.29253839567201
C         6.73242508365600    4.31886361856688   13.28523621507629
H         5.88497080489874    3.80999273705862   12.84992232848416

