116
CSD_code = VIJBIA | q = 0 | S = 0 | Stoichiometry = C53H57MoN3O2 | MND = 5
Mo        3.76752226273896    1.05693754046344    5.84750631720045
N         2.81130616108853    2.02389189389067    4.75415166145167
C         2.26981629031347    2.59742319215798    3.59133656427869
C         2.07165459668811    1.51000196923760    2.51767219681923
H         1.39885460561373    0.74774304816471    2.91613513367203
H         3.03920745468387    1.03695104808116    2.33124978861401
C         1.50202754495420    2.11948462573449    1.24045518645219
H         1.36814214357152    1.33146587401316    0.48959430621190
C         0.15005583848814    2.76292756631207    1.54612254691726
H        -0.27789772273092    3.18605274640429    0.63363087958613
H        -0.54029663055901    2.00607232451383    1.92600297105932
C         0.33824721563750    3.86211529362612    2.59057980354731
H        -0.63132407930608    4.32723740119150    2.80810983273564
C         0.90496190289599    3.25644710156572    3.87210953697755
H         0.22363743503871    2.49868997086483    4.26680150910694
H         1.03482938333130    4.03034302541266    4.63340396857051
C         3.22478082796626    3.67024041462216    3.03126285238173
H         4.19527297905786    3.20126521238316    2.84749907302971
H         3.36719173141673    4.44334437161648    3.79063449146817
C         2.65117833504435    4.27304135942812    1.75139862061394
H         3.34156890587106    5.03310131244048    1.36589883417747
C         2.46585283077146    3.17675490322961    0.70304491506525
H         3.42954900334434    2.71678398065152    0.47390738066087
H         2.06999224199057    3.60804358157961   -0.22012916863378
C         1.29972015640185    4.92101535672893    2.05182483019209
H         0.88972775968527    5.36704081575854    1.14203275847931
H         1.42569424015701    5.71778212058366    2.78856498313787
N         4.98211079522110    0.02128063735058    5.14179639883903
C         5.81633342029722   -0.62903164702464    4.21700325481763
C         7.06652292053769   -1.21599799519889    4.90132142229196
H         6.74990746374397   -1.92881756838284    5.66751814296238
H         7.61165493913941   -0.40600178361497    5.39178301082266
C         7.95669569047172   -1.90564246350595    3.87066746242750
H         8.84045076437581   -2.31744438770030    4.37376114100928
C         7.18231899320885   -3.03783913493082    3.19661513511528
H         6.87669641467540   -3.77468744484518    3.94305021280390
H         7.82154403101188   -3.54338107742972    2.46822662365840
C         5.94967054574544   -2.46362040928965    2.49836528165796
H         5.39322085952442   -3.27630853863477    2.01583386801325
C         5.05356992616886   -1.77648546303255    3.52565435696304
H         4.16009208371599   -1.35745919053019    3.05464083137908
H         4.72547413606683   -2.48831354983674    4.28739736728930
C         6.27701211533736    0.37146365917119    3.13949160348704
H         6.81267975963401    1.18677676743262    3.63035595206138
H         5.38655278093153    0.79330619947212    2.66650489623660
C         7.16855347004397   -0.32202644190908    2.11424615399444
H         7.48583126728083    0.40483357085768    1.35681034667700
C         8.40000703253715   -0.89104261744545    2.81778402447640
H         8.95751204738779   -0.08206126531265    3.29574465347352
H         9.05749949936275   -1.37337469072091    2.08987080313752
C         6.39111535373176   -1.45251526823586    1.44101832995148
H         5.51600749803845   -1.04614381805052    0.92930025115195
H         7.01971214665851   -1.94522632349295    0.69467926171762
O         2.54063493409129   -0.31274100036187    6.29067806101107
O         4.83643802378077    2.46723668150514    6.51520859827428
N         3.43743047591538    1.14049785177150    8.18884355808133
C         1.27260279126840   -0.23850271238488    6.81295532677652
C         0.26692493073827   -0.30018934988831    5.66401137718710
C        -0.90774133048645    0.43732120048341    5.59896292866872
H        -1.17773661680547    1.12606679693457    6.38557610550457
C        -1.75680412679609    0.30891059667810    4.51080990922380
H        -2.66400797189879    0.89500993030014    4.47107126266191
C        -1.44651684107256   -0.55655833751420    3.47764571999660
H        -2.11019070574188   -0.65092218381916    2.63057373704932
C        -0.27707358308917   -1.29657489640483    3.53565512695926
H        -0.02348304908428   -1.97159870045131    2.73138584030536
C         0.57111657927465   -1.16863724599289    4.61996321694011
H         1.49580259305598   -1.72764963146911    4.66854670148545
C         1.01115528955477   -1.39624813524510    7.78261503052257
C         2.08345798746650   -2.11742645851120    8.28849002587294
H         3.08083455583808   -1.87827875386087    7.93905707321122
C         1.87770921689570   -3.12959828999281    9.20838722839980
H         2.72025088960278   -3.68446150733686    9.59548466628918
C         0.59484338246711   -3.43151690011848    9.63145247486528
H         0.43177342233781   -4.22149914544641   10.34980619566883
C        -0.48013557475613   -2.72071732949180    9.12455542534725
H        -1.48403058051609   -2.95803037228983    9.44573657904830
C        -0.27455958675925   -1.70696795351916    8.20593622661855
H        -1.11878549652798   -1.16238422553337    7.80808581011301
C         1.11689892549902    1.08397896122467    7.64773813894216
H         1.25508013624303    1.90875059562742    6.93399455273588
H         0.13792852505877    1.13436129487031    8.12335544523595
C         2.19709738228592    1.13361202876793    8.67218727718425
C         1.96951523309271    1.14555656724223   10.04404510575323
H         0.96293309756935    1.09791698982206   10.42897499179550
C         3.05734382478156    1.23285122642972   10.89861449473928
H         2.90747767683224    1.26929229745380   11.96734952524108
C         4.33886276739928    1.27291208108820   10.37200671274852
H         5.20132999540976    1.35529563278232   11.01467205475930
C         4.49723890807648    1.19104522826590    8.99278883462652
C         5.81797369810020    1.18036813266140    8.30422280385564
H         5.87353768995573    0.30691428514315    7.63886150703876
H         6.62741703454963    1.17203715655914    9.03344780060936
C         5.91216087442650    2.43991083932893    7.36867219593883
C         5.91102931702900    3.66468882314472    8.29010646646470
C         7.03457944931175    4.01533840927933    9.02731764757836
H         7.94994368184169    3.45238884133711    8.91470442219685
C         6.99101449486356    5.09175468637004    9.89524218736049
H         7.87085535047714    5.35928393501646   10.46233560615024
C         5.82580849877512    5.82634392699776   10.03794581355462
H         5.79390873542053    6.66524638706327   10.71760019921935
C         4.70502826786596    5.48469175192388    9.30106010286789
H         3.79446284345360    6.05740797985288    9.40326465004683
C         4.74875471500464    4.40966788470192    8.43189377813303
H         3.88274721509748    4.13813040670807    7.83999079691482
C         7.19548693320653    2.42705848577910    6.53889775970422
C         7.19480992421333    3.19910583841172    5.38109542502522
H         6.29454723610788    3.74113146759614    5.12453866691226
C         8.31034110986455    3.25384874699711    4.56602802974804
H         8.29119488666175    3.85416645602669    3.66818292848667
C         9.44805390923702    2.53632203201591    4.89653345561431
H        10.32050138515063    2.57371074627816    4.26063842440492
C         9.45785133815683    1.76662242134300    6.04555420681723
H        10.33870200370485    1.19802734941030    6.30796654361308
C         8.34034060934605    1.71138876394841    6.86379256545865
H         8.37991334818478    1.09519360868026    7.74964211625198

