90
CSD_code = VIJBEW | q = 0 | S = 0 | Stoichiometry = C43H36F5MoN3O2 | MND = 5
Mo        9.06502800717909    4.48381600558183    3.16115787414926
N         9.22580599567682    5.99503296114698    3.99727344598236
C         9.19501079896302    7.25765309157217    4.61317796385775
C         9.92066818543312    7.20544273228840    5.97057420903875
H         9.87123185245108    8.17053776319914    6.46869374964259
H        10.96467771459315    6.93762046498532    5.82181374410768
H         9.45181635524331    6.45157462315770    6.59942461619296
C         7.72293585493258    7.65434454242361    4.83479233000799
H         7.23910572239756    6.89964411683808    5.45113709653552
H         7.21058107829515    7.69558038131866    3.87614357667774
H         7.65238887170066    8.62231316394940    5.32457303183987
C         9.87680029879809    8.28689848829372    3.69117111419385
H         9.81251714315668    9.28589335153512    4.11524233268788
H         9.39215081688330    8.27619390940585    2.71625815262155
H        10.92426653062621    8.02399484625426    3.55844868293417
N         7.30771161319780    4.16746104361952    3.21066722630972
C         6.09142041416539    3.87984845486673    3.59398301164706
C         5.84072079215865    3.33983248716051    4.88734993587334
C         4.58293749294109    3.00864566415996    5.33632886113893
C         3.47667650197574    3.20529441175503    4.50926228814088
C         3.66678738504222    3.72784208326358    3.23119088988530
C         4.93207995000899    4.05437047135297    2.79152704821803
F         6.93319060875787    3.13520281617385    5.67055805809148
F         4.40910645748186    2.49244694365018    6.56496692399179
F         2.24022824856998    2.88608354678735    4.93823677286423
F         2.60513763281145    3.90767585083448    2.42759216876530
F         5.10503556706889    4.54235444919209    1.53884686784114
O        10.04997681272450    3.41777533490929    4.15601563041670
O         9.58913954689629    4.92887613894868    1.50596243570863
C        10.46609938274386    2.16734758643227    4.54328988120931
C        10.53631849185333    2.12422839336258    6.06942789134126
C        10.83409469270999    3.31562990220698    6.72197417497493
H        10.97952242408259    4.21251322494729    6.13263983341674
C        10.92597399884129    3.36131716097164    8.10031714165279
H        11.15266780469287    4.29604145286648    8.59130486156545
C        10.72604180879228    2.21337056726364    8.84746488626960
H        10.79613015778930    2.24495512971275    9.92433606004806
C        10.42688197454591    1.02534176747978    8.20583084612196
H        10.26050752800061    0.12673851818589    8.78148353261766
C        10.33014275217170    0.97811159674487    6.82523584470325
H        10.08133249099738    0.03775761922426    6.35712125409790
C        11.82914741083309    1.84012907977086    3.92529696237585
C        12.60096621673339    0.78850083474386    4.40304384848950
H        12.27669809651105    0.23336572320192    5.27004606685843
C        13.79068057157897    0.45659764115293    3.77962649086842
H        14.38367452743910   -0.36106637727370    4.16167843872037
C        14.22002857454916    1.16444817689494    2.66966155943220
H        15.14488088389601    0.89811640891742    2.18065089784099
C        13.46009649230490    2.21871188131662    2.19340490819414
H        13.78340460153968    2.77971982841386    1.32852156653604
C        12.27392580536051    2.55554775283649    2.82059636105615
H        11.68808059466240    3.39260990032698    2.44326524581728
C         9.43186530319595    1.15100135864563    3.96682483612547
H         9.64526001183792    0.13893575569969    4.30591054214323
H         8.44908150117385    1.47388631920050    4.32728976439399
C         9.48413754441760    1.20107325036935    2.47296327202869
C        10.03752883724795    0.14881184547360    1.74864013066194
H        10.43197503547606   -0.71337627233920    2.26308058476025
C        10.06364804868972    0.22643314938839    0.36822488808755
H        10.48366526540766   -0.57593914816765   -0.21964940443595
C         9.52480469008718    1.34238077710324   -0.24623894168485
H         9.49938003660942    1.41723823760321   -1.32110179599299
C         9.00161125581490    2.36441456704970    0.54125685695524
N         9.00846378948745    2.29234579485338    1.87411192744482
C         8.41665563469575    3.59882790742967   -0.06377479684373
H         7.49824572963637    3.86404911405036    0.47182931057678
H         8.19205731912810    3.45841383962027   -1.11981743097954
C         9.39415620964312    4.80055147335595    0.14659969994444
C        10.74395763276994    4.58463448406115   -0.53044861988314
C        10.89120729229623    3.93860972442433   -1.75214699649584
H        10.02718146769310    3.57877854559890   -2.28966526835845
C        12.14754674405635    3.76391919358342   -2.30658637072173
H        12.24615564300892    3.25716567308362   -3.25548818117522
C        13.27299726067689    4.23805867549619   -1.65554959088166
H        14.25139734369584    4.09667095775392   -2.09006005028294
C        13.13344075323043    4.90608289734386   -0.45116132538089
H        14.00274554057012    5.29971463642024    0.05549740312729
C        11.87830523078267    5.08057027636568    0.10325179797942
H        11.76425015831529    5.61619322786142    1.03936921048893
C         8.70305089635422    6.06408785006450   -0.38112186195682
C         7.78942542724580    6.70348903067662    0.45001927997535
H         7.60124890135006    6.30140133432987    1.44508593982539
C         7.13424302492986    7.84290256638390    0.02000139173578
H         6.42585245442497    8.33104000504153    0.67229703604260
C         7.37980594545324    8.35189582096548   -1.24465315641167
H         6.86702604355971    9.24037631886559   -1.58136474679225
C         8.28651726270601    7.71705742478627   -2.07457391910686
H         8.48477951409410    8.10911580119008   -3.06118205479096
C         8.94800358509717    6.57789549884141   -1.64679220120441
H         9.65989413238500    6.09920817921600   -2.30256575248257

