79
CSD_code = VIJCOG | q = 0 | S = 0 | Stoichiometry = C37H33I2N3O2PRe | MND = 6
Re        3.34088560978202    8.25857675018936    3.88791839157488
I         5.40827412331560    9.71410585186415    2.82599105160948
I         1.31344404508976    6.95222316627234    5.19692279620196
P         1.74476598958831    9.94654809935136    3.17480395844196
O         3.65808165139499    9.22250432846330    5.54077207875787
O         4.44371434726909    7.98251073777489    7.19186323876158
N         3.20159371511709    7.23449227215670    2.47089056178232
N         4.96627649210904    6.72554360420475    4.76250895980490
N         3.91477316027699   10.19723130447888    7.51231729033569
C         4.02527252590822    9.05045432881593    6.76410135477570
C         3.22007025417976    6.30784126862080    1.50527878553590
C         4.06995110377554    6.45421084729681    0.39211032145647
C         4.11575995375910    5.46750611988112   -0.56730432545569
C         3.32511371542331    4.33298077171387   -0.44870893669243
C         2.47707937861491    4.18631720099611    0.63989752813098
C         2.41251513955053    5.15905311033627    1.61213859905920
C         4.94746674701162    5.41811226656147    4.21840488105333
C         5.67935482861939    5.14821988395666    3.06486829272779
C         5.60226026231131    3.90260703571800    2.47277226807802
C         4.79810103049485    2.91890131731894    3.02378250628400
C         4.08094243581973    3.18196181117916    4.17877413012496
C         4.15569681836538    4.42376366616816    4.78166457904496
C         4.19819376057795   10.39973746526728    8.86121589441131
C         4.48404572243883    9.35544948400209    9.73505020957072
C         4.74662031829677    9.62746702994828   11.06485602309883
C         4.72660467245777   10.92748467938453   11.54004358477179
C         4.44043285356253   11.96723699548231   10.67098201927087
C         4.17737055503320   11.70837866836073    9.34050720694869
C         1.66501402757551   11.13575377398906    4.53027540820921
C         0.78836536208764   10.91488158263624    5.59133451732483
C         0.81194457289076   11.75928675973074    6.68641295526046
C         1.71351839842822   12.81200577504090    6.73410884862407
C         2.61317571021826   13.00852249532650    5.69563949492116
C         2.59990796575552   12.16761296311426    4.59663522123069
C         2.08810673454233   10.87484525112415    1.65192408140731
C         1.73188831158745   12.20940983304123    1.49958513670088
C         1.94437157943347   12.83636789664928    0.28482326460884
C         2.49353058485325   12.13612325478901   -0.77656908451036
C         2.82309701379266   10.79779586049951   -0.63249076869903
C         2.61618540192560   10.16538267595950    0.57795134090972
C         0.04139307557254    9.44510203066842    2.79451969771023
C        -1.03274592716946   10.30083519744870    3.00971656433853
C        -2.30307466538995    9.90918334175170    2.62793521224597
C        -2.50175287166041    8.67965408901775    2.02153471861931
C        -1.42672320803705    7.83867243722834    1.78272598490664
C        -0.15479299041859    8.22160395083974    2.16293076796774
H         4.75404399896399    6.76420128621389    5.77438973495538
H         5.87001906037949    7.17634161227149    4.60543473605901
H         3.62546284556045   11.02063229897194    6.99834777737637
H         4.68958488557633    7.33579845659362    0.32148466525850
H         4.77587786222112    5.57995251330182   -1.41436744249280
H         3.37120010515579    3.56320227184656   -1.20396864986287
H         1.86319162378869    3.30324114932364    0.73202248789058
H         1.76712198223283    5.05501879622475    2.47073411936329
H         6.29645699564325    5.92248282359515    2.63010138240785
H         6.16935336286120    3.70261413883024    1.57594933947392
H         4.73504549983449    1.94821103740247    2.55581692019767
H         3.45784600999806    2.41706568566967    4.61676051158521
H         3.59278164851757    4.62765903367255    5.67998106875661
H         4.50159953384771    8.34269316764783    9.36892384511869
H         4.96747935607111    8.81064199254537   11.73591238090598
H         4.93307443313621   11.13099489262163   12.57996113379745
H         4.42370197341254   12.98618632867467   11.02973147915951
H         3.95879624231414   12.52068178321062    8.66070760206776
H         0.10085919737627   10.07980490873444    5.56058783746942
H         0.13364034419821   11.58904498914357    7.50887775426595
H         1.72404325417296   13.47087271972417    7.59002675022889
H         3.33387006360556   13.81231384050741    5.74446864287537
H         3.31753783734431   12.30166254491655    3.79741397853640
H         1.29752570470330   12.75808680985143    2.32401514708494
H         1.68054615544623   13.87714557571309    0.16824896421608
H         2.66354945509944   12.63502227199555   -1.71870789243704
H         3.24615330416759   10.25017727952335   -1.46084334127731
H         2.87412287642877    9.12222680776767    0.71257278534781
H        -0.87963714973448   11.26311663691631    3.47891522768051
H        -3.14084136044384   10.56688615634823    2.80667844768257
H        -3.49742041343887    8.37729004859905    1.73402956408534
H        -1.57980516113827    6.88222599687666    1.30665044973316
H         0.69394818653990    7.57144491021752    1.99232598125725

