72
CSD_code = VIJCEW | q = 0 | S = 0 | Stoichiometry = C36H30IO2P2Re | MND = 5
Re        1.91491968380831    3.92263975766588    3.56948754653393
I         0.95009970993574    6.08409402550445    4.77817495215326
P         3.20355208076184    5.16612575714501    1.87942126199212
P         0.83433438531539    2.31507082435644    5.08719657707179
O         0.76613272916538    3.62527167953892    2.38235983102385
O         3.32961952870544    3.62249840732717    4.42470022563755
C         2.39623903967423    6.60467750941397    1.13101211210642
C         1.02507289720730    6.51486531358665    0.90322187123081
C         0.34902532609673    7.57831807800433    0.33673951428390
C         1.03756295009133    8.73286092895446   -0.00103931810219
C         2.40116728195214    8.82396871465602    0.22684230081756
C         3.08601256041898    7.76412481056625    0.79381505201314
C         3.56883479208444    4.05762059778585    0.49178197504464
C         3.44631056025933    4.44127816881991   -0.83801281334595
C         3.72436404562828    3.52913687538947   -1.84160159929587
C         4.12316165062523    2.24109342352800   -1.52462289996799
C         4.24364231627927    1.85525209778137   -0.19803509350586
C         3.96368698407529    2.75879105916670    0.80880367500250
C         4.81362470101532    5.76229090070398    2.45273518001474
C         4.80960320408691    6.68058490359661    3.50171620290337
C         6.00430963816872    7.13746240616568    4.02322688103039
C         7.20650103558377    6.67744242996920    3.50786528238633
C         7.21188467683126    5.76056054616825    2.46985520900943
C         6.01950819016829    5.29735457337165    1.94151084316033
C        -0.87895074226300    1.88048275474758    4.69487655911729
C        -1.30004458359690    0.56957284156538    4.50330504984874
C        -2.62170446232907    0.31471764848321    4.18249156905038
C        -3.52100330797176    1.35960574396257    4.04651661781740
C        -3.10116413064832    2.66779606463076    4.23160780208481
C        -1.78324966392121    2.93102934725829    4.55243721798739
C         1.74989300311819    0.75323021541872    4.98979299442845
C         2.08539842450130    0.30505699806862    3.71306142075763
C         2.79874528884130   -0.86727921582054    3.55625051603055
C         3.18605080015353   -1.59362893478069    4.67251739265836
C         2.85830531463319   -1.14710004848017    5.94199794912428
C         2.14044487384239    0.02532235869141    6.10676239765527
C         0.82808432643024    2.75222516506854    6.84470659462357
C        -0.27044371379846    2.54020907064007    7.67005237186707
C        -0.20404507806252    2.91116710947176    9.00132680849671
C         0.94655187266895    3.49277992721791    9.50810516721122
C         2.04010693192669    3.71000722024852    8.68420740728893
C         1.98245649742540    3.34367193002038    7.35360436508902
H         0.50109266894730    5.60928806404369    1.18563988921021
H        -0.71499317753793    7.51200984405849    0.16626931355358
H         0.50900479669388    9.56723280894899   -0.43766905657576
H         2.93413393870278    9.72648928101707   -0.03432133982279
H         4.14925443197391    7.83491578710412    0.97733341268641
H         3.13001825702182    5.44553812575392   -1.08351359355870
H         3.62612623961430    3.82498077447251   -2.87585866443221
H         4.33543201412986    1.53365261352534   -2.31272503693822
H         4.55108869712658    0.84907529335746    0.04774242945158
H         4.04398911580804    2.46998919990624    1.85202192883330
H         3.86830710455127    7.03101041869437    3.90437313119997
H         5.99800103787247    7.84735176050841    4.83692481801939
H         8.14068057449602    7.03037615940444    3.91942119740771
H         8.14907283652966    5.39979645211686    2.07114021695252
H         6.02525212834948    4.57812811596295    1.13390534927649
H        -0.59715018021521   -0.24588374138195    4.60659614945850
H        -2.94944936852870   -0.70427201258932    4.03548943410185
H        -4.55010051889021    1.15391255634758    3.79106347975276
H        -3.80017031027299    3.48327364752430    4.12020459979663
H        -1.44703190338538    3.94995435580866    4.69131744319760
H         1.78229611025374    0.89078762889530    2.85088893928452
H         3.05859123886014   -1.21476464564569    2.56676109139677
H         3.74958156457514   -2.50713323195953    4.55165987236459
H         3.16554757317853   -1.71277120627221    6.80948559011997
H         1.88772808697433    0.37815181733858    7.09705232185796
H        -1.16968423887232    2.09166528630802    7.27119779172693
H        -1.05664976838131    2.74923342021064    9.64440573085649
H         0.98837376708090    3.78470823679263   10.54696306681750
H         2.93232409469522    4.17313760756612    9.07815888420999
H         2.82083156976315    3.52131559658655    6.69019663946258

