78
CSD_code = VIJFOL | q = 0 | S = 0 | Stoichiometry = C37H30CuF3O3SSe3 | MND = 4
Cu        5.01329587912171   -0.18938240547472   11.14288166108387
Se        2.73249750348895    0.60878831077270   10.40175910083412
Se        4.95016468125275   -2.41212128694043   12.67689027828752
Se        6.43488312534512    1.70058629193187   11.97937776739451
S         5.95129525794017   -0.38479078078127    9.04340995290805
F         6.15545025020133   -2.21374344400507    7.12825333771435
F         6.95125158233742   -0.28944542365647    6.56339196534910
F         8.05203525115343   -1.55763022476313    7.91805643895089
O         5.93703068402439   -1.49351116550946    9.98741394431639
O         4.65222453873738   -0.02835131409251    8.53798369137710
O         6.79928430462464    0.70971538975357    9.43495686976987
C         6.82773642927396   -1.14997888033696    7.57480831503109
C         1.88631379049839   -1.11636736337264   10.54929723428625
C         0.54706463920093   -1.22693476241893   10.90140127652211
H        -0.02853481170455   -0.33859498995477   11.11967328016373
C        -0.03537318505799   -2.47902406157454   10.97800855828805
H        -1.07408457402278   -2.56717940616742   11.26074868522935
C         0.70323021399047   -3.61390471243444   10.68250381326652
H         0.24230048066851   -4.58872902002560   10.74223782862627
C         2.02929295497261   -3.49573337536159   10.29949164698298
H         2.60649837527715   -4.37512443347750   10.05525462937044
C         2.62499163906369   -2.24741747833325   10.23100119378368
H         3.65541153052629   -2.15107077945317    9.91387438722050
C         1.90763744610340    1.48692140436249   11.92942780964914
C         1.58455670974192    0.81711603304349   13.10105104586548
H         1.74416145166462   -0.24786837200915   13.17729934555268
C         1.05575896277467    1.51999448455268   14.16879761041392
H         0.79851166698222    0.98996166838601   15.07350216422068
C         0.86704257539767    2.88987388316794   14.08254643265336
H         0.45749922476863    3.43408933901311   14.92055306213671
C         1.20317695600036    3.56099223492675   12.91771527791327
H         1.06008319341213    4.62881421557966   12.84510891545810
C         1.71540188487366    2.86178065855880   11.84032838689405
H         1.97429833197314    3.37210494267978   10.92245425805073
C         6.59240771629180   -1.95201575912138   13.56938570914709
C         7.60283133131114   -1.36865069458221   12.81659232925063
H         7.44391887084566   -1.16356028293821   11.76506548503362
C         8.82133097087451   -1.08315533403164   13.40860898259511
H         9.60540147633801   -0.62985034726411   12.82026892150853
C         9.03014334437163   -1.37647723976720   14.74649646705150
H         9.97927649314530   -1.14901830517038   15.20871086950033
C         8.02374936122197   -1.97402298011494   15.48850116941755
H         8.18959398721961   -2.21967518264122   16.52714646855722
C         6.80826853720512   -2.27697943644351   14.90235471300968
H         6.02999652343975   -2.76333569303294   15.47277225030596
C         3.65324699717983   -2.06928411707391   14.06848590682722
C         3.85144712110318   -1.12725622907531   15.06771429504475
H         4.77022903838602   -0.56164521617514   15.10622229388096
C         2.86483739085731   -0.91787457655687   16.01447289153762
H         3.03048258383438   -0.19269896108290   16.79706649291250
C         1.67492409433942   -1.62493002055128   15.95748019192520
H         0.90972545512501   -1.45995767818444   16.70143190371391
C         1.46746142224929   -2.54597620448618   14.94248382442611
H         0.53870609317426   -3.09414803852798   14.88825001210412
C         2.45464448869658   -2.77387359359602   14.00234067107142
H         2.30839999556730   -3.49513453239454   13.20953811315432
C         5.93293410929027    1.84598079299718   13.85401454007175
C         6.88635881439389    1.52769937372496   14.81370062497155
H         7.88283915422103    1.25278005760661   14.49744309558046
C         6.55681979068973    1.56693751130780   16.15656391513766
H         7.30017693202472    1.31510119135585   16.89821477903052
C         5.28119370938835    1.94063664014196   16.54765389178250
H         5.02962628388226    1.98499509774862   17.59685873619298
C         4.33108009071728    2.25830461100255   15.59005755989168
H         3.33310319692678    2.54702060578115   15.88399391008947
C         4.64897947376137    2.19966303723396   14.24542350414259
H         3.90364207050769    2.43511914028842   13.50043181307822
C         5.41901492383202    3.19629349195902   11.30434773341245
C         5.30551611910438    4.35955802269050   12.05669411379993
H         5.76281130788714    4.41736452528228   13.03419183023750
C         4.60138525308028    5.43566799965315   11.54912083722097
H         4.50782119982405    6.33617866726502   12.13812670961335
C         4.03184613933516    5.36714136026411   10.28745716712693
H         3.48684737213264    6.21230177087952    9.89379665110527
C         4.17487380146805    4.21764631293148    9.52863372003646
H         3.74654969328831    4.16006890946746    8.53901846516513
C         4.86779525496528    3.12873791106793   10.03278710977901
H         5.00407307196432    2.24618821558610    9.42401916495597

