72
CSD_code = VIJGEB | q = 0 | S = 0 | Stoichiometry = C36H33IrN2 | MND = 6
Ir        7.70863435370711    8.36419753569575    2.79607875666695
C         2.94233562943441    6.01878650273524    2.72125766657614
H         1.90096167762499    6.17092570948121    2.43062026444573
H         2.94747602753495    5.53886243287324    3.70336524619776
N         5.86305984180816    8.42334121495484    3.34680115311646
C         8.01937609203983    7.75982647199452   -2.34179144446726
H         7.98880320594457    8.29866058322452   -3.27747279016829
C         8.03225099710346   10.32520220437035    3.55216381214507
H         8.91703218057672   10.82299671690812    3.15046178278364
C         9.75547118980529    7.91770162564334    2.29216429212624
H        10.48618061508649    8.59556948700829    2.73422648174874
C         8.30489112574607    9.36091866206198    4.59042073764826
H         9.36126356487905    9.21560604360874    4.81761510950951
C         9.05782277686129    8.46887834426492    1.17184499488959
H         9.33960582935885    9.48763651550624    0.90536737345167
C         5.95072251687154   13.41932833235387    3.20779986227668
H         6.09022049480344   14.44480267434691    2.89773940172798
C         7.46174706672363    9.15245617357586    5.76709327503311
C         8.07193472437552    8.95706419558952    7.00850902364102
H         9.15116746279266    8.94621411815619    7.06662423855039
C         5.31996838258387    9.01810082521264    6.87101542411229
H         4.23998414825037    9.03611620022540    6.81657810830227
C         5.12342848488159    7.17985238711136    3.22253447592398
H         5.14295658963533    6.61787244203211    4.18024634280148
C        11.96632568314521    4.99926833942139    3.03743390085989
H        12.93557137644431    4.83621679412778    3.48555509543108
C         3.64786803775332    7.36753162412491    2.81940884068684
H         3.12347862801182    7.98253870093538    3.55058683173985
H         3.61269246499136    7.88852401457021    1.86056269327236
C         8.06402229536528    5.60961150885987    1.37227730839290
H         7.66796082104493    4.60683554896181    1.15088061317055
C         5.78478611786669    6.31508799840164    2.12959827043757
H         5.65903682650204    6.82360228779163    1.16526807219801
C         7.60217139395661    6.43954603269371   -2.28472684470808
H         7.24387431568349    5.93731647750789   -3.17062573582109
C         5.10725225529554    4.94352033122708    2.06403499592381
H         5.20368385813391    4.44190191598889    3.03142645079675
H         5.58388182957494    4.31685616698836    1.30820275959465
C        11.44576205944131    6.27344660211488    2.96592663452286
H        12.01824525856146    7.10421289572970    3.35373460639664
C         9.46215107271197    5.43453810613530    1.91176388526740
C         6.86307059769603   11.20533374169651    3.56849112424538
C         8.08637068350108    6.39247564719477    0.08388260245920
C         5.94127605769663    8.83306070528942    8.09397312386185
H         5.34957860659597    8.70478625838927    8.98832054954835
C         5.37772627219144    9.32777639569573    4.36877194071875
H         4.30320451904700    9.18128978055317    4.52656306625360
C         4.54321431586120   11.67039154499386    4.03197585201318
H         3.57098107043968   11.33074239838688    4.36210528095188
C         4.71058959881430   12.98926616198939    3.65008824643079
H         3.87608760082041   13.67393618494496    3.68556930907919
C        10.00017068751602    4.15773202265090    1.97688383662281
H         9.42710351423023    3.32284363186567    1.59588254388815
C        11.24827796759781    3.93034600106758    2.52612856869137
H        11.64925218312971    2.92891350021245    2.56737453692314
C         6.06300173656092    9.15861937249256    5.71065285286966
C         8.47680224919171    8.38379100310027   -1.20209064080885
H         8.80794831532672    9.41131663879646   -1.25476587110235
C         8.53946456692264    7.72284319819478    0.03323104667665
N         7.22850635823420    6.26176846364067    2.39837938017618
H         7.36809786580036    5.75039700024741    3.27115861082576
C         7.00972751251562   12.53562031000417    3.16846950116069
H         7.97959760404021   12.87794553395280    2.83562921658397
C        10.19767541357704    6.53091388373997    2.38566188261475
C         7.63643561813021    5.77378558789642   -1.07349684005959
H         7.29784694210705    4.74718731808863   -1.02493791952889
C         5.59746130017613   10.77194861701429    3.98216395045713
C         3.63247778564559    5.11018809704839    1.71147707372592
H         3.55074236203013    5.54745315247447    0.71370007188203
H         3.14332621713910    4.13405966785151    1.69091950522274
C         7.32419370917034    8.79805725012730    8.15833599054155
H         7.81883149538188    8.64883818588860    9.10702963986815

