121
CSD_code = VIJJIK | q = 1 | S = 0 | Stoichiometry = C63H51BrCl2OsP3(1+) | MND = 6
Os        1.38779125478674   12.62264777338320   18.40912142257913
H         0.96706432932726   12.98746562676504   16.96605555357924
Br        4.89764588159686    7.13787586611997   22.90269108295062
C         4.32111510139910    8.98890656190284   18.64597690329733
C         3.76898418889377    9.60095920093799   19.78095571757620
H         3.16988275437885   10.49187105325818   19.66807984445134
C         3.95595361147401    9.07594520460348   21.03805966700855
H         3.51792853171883    9.56407656159528   21.89412344895159
C         4.69150558424897    7.90708219924841   21.18408151666807
C         5.26477270363478    7.28209102696092   20.08076456095776
H         5.84004195714104    6.37874547006329   20.21273932903160
C         5.08720719252004    7.82215525930535   18.82803469623837
H         5.53084037305827    7.33653880053684   17.97072109504663
C         4.12484462526616    9.49161870530491   17.32694679043989
H         4.63836558766799    8.94898079954821   16.53817482067482
C         3.34864007838779   10.57089426286612   16.94443038397161
C         2.54973087862758   11.40237471153238   17.69719473056695
C         4.94724417380218   10.43244045865089   14.45796088573807
C         6.08175368923585   10.86184522982794   15.14604352264579
H         5.97780008416195   11.37679347742785   16.09222000266627
C         7.33540785188002   10.60723734876494   14.62259391360354
H         8.21401615294205   10.93913903327299   15.15379956687256
C         7.46312319226718    9.92410738915560   13.42257626730714
H         8.44323409918129    9.72603938365282   13.01755142920489
C         6.33520439013607    9.48776610357748   12.74615185427229
H         6.43616929962677    8.94860350251823   11.81698406228293
C         5.07432364401312    9.73945674611163   13.25843836456642
H         4.19550430921868    9.39270395215847   12.73420297131190
C         2.08827077154020    9.74410324909496   14.38208720333320
C         1.59412545573037    8.65273732616508   15.08819599876394
H         1.92394074116527    8.47250367736366   16.10071304872635
C         0.68553142339271    7.79942267508241   14.48900936713043
H         0.29949660195424    6.95637025294169   15.04037124828864
C         0.27561328613499    8.02746623967752   13.18563861117008
H        -0.43104767191096    7.35922676972873   12.71892568097490
C         0.77446721066523    9.10940745693584   12.47591757411254
H         0.45813236654835    9.28179997377456   11.45852155364383
C         1.68069413537840    9.97006992281996   13.06690284827342
H         2.07187402975886   10.81536543149141   12.51664811650435
C         2.94676973445387   12.54173412492878   14.67042957952223
C         3.97418580970408   13.48090271879421   14.66458981460338
H         4.97424080688946   13.19806005345936   14.95872806462568
C         3.71171235809344   14.77747364544073   14.26219144000501
H         4.50867574059585   15.50459139748377   14.24885458860902
C         2.43572234552471   15.13815931298304   13.86224381178327
H         2.24074667896590   16.14754858585425   13.53529622329656
C         1.41150523655667   14.20399779957873   13.87732069891675
H         0.41627527901033   14.48702923173592   13.57013915373565
C         1.65912296860343   12.90627186559805   14.28350114731119
H         0.86424976518436   12.17538327122370   14.29528672031858
C         0.17863541186646    9.53691614680092   19.78509237963870
C         0.96636834418993    8.60036176023120   19.11954998493751
H         1.21185047868528    8.77617514149002   18.08041341133727
C         1.40937971029632    7.46604733057557   19.76973449164973
H         2.00939389229371    6.73881075846666   19.24143644815857
C         1.09030739571418    7.26825305557761   21.10421214755021
H         1.44161280932335    6.38722772065699   21.61969743862197
C         0.31938769541084    8.20253603540970   21.77423593694397
H         0.07176865660391    8.05065747032978   22.81396078024252
C        -0.14402512918177    9.33196256539851   21.11975458441906
H        -0.75598842850196   10.04562805363897   21.65018746778338
C        -1.80618436971658   11.63187457171965   19.70716940598008
C        -1.61598182870195   12.25685459085696   20.94004890725695
H        -0.62108011112670   12.35836225818427   21.35155066110622
C        -2.69685345262211   12.77483739189294   21.62779347447848
H        -2.54168972908883   13.25880934766133   22.58061022928979
C        -3.97079738792050   12.68543050884973   21.09064142409893
H        -4.81320376144138   13.09573399119805   21.62664664897808
C        -4.16037166186422   12.08201799122903   19.85874258140882
H        -5.15022077733466   12.02257180520575   19.43132772253556
C        -3.08500891916618   11.56005756058130   19.16209325895703
H        -3.24288268059553   11.10316874553207   18.19577116864760
C        -1.11036611995190   10.15996730880224   17.36780237792627
C        -1.73244978771922    8.91978015384674   17.48686018217894
H        -1.75132884047712    8.41493875708109   18.44232276476274
C        -2.33839179101170    8.34137720966605   16.38641520675476
H        -2.82523555796413    7.38284724167722   16.48663211297010
C        -2.33596567488784    8.99341449115521   15.16349619684367
H        -2.81917985659486    8.54223171295533   14.31023271945881
C        -1.72709075494724   10.23134761897637   15.04193169881265
H        -1.73778313522381   10.74668339648970   14.09235916443262
C        -1.11762050994748   10.81149068759984   16.13991736489462
H        -0.65278928881392   11.78556108791637   16.06810056646372
C         2.48561274147707   16.04401389766125   17.74341841108721
C         1.50733810749622   16.10135431997574   16.76062939689532
H         0.96405998073980   15.20496598682589   16.49966376737752
C         1.21186973843286   17.30630011944266   16.14623335087891
H         0.43409012022000   17.35019574298250   15.39840440085044
C         1.89766967564504   18.45518464467088   16.50105595153276
H         1.66204661025359   19.39543805083828   16.02592408333314
C         2.87907784491710   18.40198910785285   17.47928569947454
H         3.41008363738663   19.29814846491834   17.76326284219900
C         3.17040220641667   17.20470223346870   18.10449780051799
H         3.92139054296289   17.16695128467968   18.88279620731531
C         3.07240811052951   15.07924190508987   20.31516152285436
C         4.11977969554048   14.67229840788703   21.13511559118923
H         4.88875723913948   14.01441107838757   20.75750661686385
C         4.17655278136914   15.10956174560712   22.44611778425291
H         4.99048095886743   14.78847407835779   23.07904913922656
C         3.19272145731655   15.94404513171481   22.94944425914624
H         3.23689100082333   16.27331470028588   23.97659745309097
C         2.14977752164794   16.35243159929008   22.13405350801290
H         1.37851312548399   17.00121924655571   22.52175405272045
C         2.08700941677685   15.92578116219615   20.82134799301092
H         1.26734489745513   16.23973084951884   20.18951751007937
C         4.60432410396849   14.13129548199670   18.09813885363078
C         5.16515617693933   12.94204783340366   18.56219326737038
H         4.57042139686526   12.28038128695004   19.17854920382795
C         6.47126159442476   12.61243905768960   18.25006676930757
H         6.90091409812728   11.69689665258917   18.63187029256432
C         7.22818431496139   13.46271319287133   17.45718863613855
H         8.25085205920573   13.21292092363962   17.21747335861118
C         6.66964206544626   14.63495353953712   16.97616403108355
H         7.25697615175694   15.29666407615081   16.35698990214355
C         5.36428488756499   14.97195971633390   17.29433675461210
H         4.94022013489303   15.89161008828718   16.91996404036221
Cl        1.83611677713500   12.21274734257493   20.72864601748940
Cl       -0.09967418539602   14.24060462662599   19.03225516838267
P         3.31647991646809   10.83593096327519   15.13091962371888
P         2.88382801857466   14.49147930917696   18.60200431437887
P        -0.36088035604521   10.98508099163768   18.81707461680548

