119
CSD_code = VIJJOQ | q = 1 | S = 0 | Stoichiometry = C63H49Cl2IOsP3(1+) | MND = 6
Os        4.02851336892114    3.20460480380812    4.03329975138785
Cl        5.29580003512036    3.56924709501986    2.14469359123514
Cl        5.41181319450099    4.74455233527315    5.35062929204699
C         2.90872412866190    2.81184049870599    5.41088778259280
C         1.78259060760717    2.17851111159030    5.86227501683756
C         1.08706776317390    1.41893883040249    4.93328969252290
H         0.17065456947536    0.92766548463464    5.24380055194022
C         1.51688947821347    1.23731842787140    3.59116416751875
C         2.69253414846857    1.83463516524081    3.03690205940012
C         2.97748086091504    1.51114116752513    1.71304292073974
H         3.85185059683899    1.92792102508433    1.23632008841553
C         2.18093093214621    0.67159118347497    0.96268594258496
C         1.03491899331766    0.09496578830146    1.49753461380791
H         0.41502781098555   -0.55901723921479    0.90484317917931
C         0.71676630599546    0.38398844299651    2.79665868372424
H        -0.16974134789964   -0.05243677982545    3.23578321480470
C         1.89994420563553    3.66733128010820    8.41519037910118
C         3.15518614542063    4.14614807359485    8.05904424649268
H         3.68874365324741    3.68529025661858    7.23590777203514
C         3.69005766760901    5.23171137436531    8.72713615548371
H         4.65595793777184    5.61149100037876    8.43245852614892
C         2.97739605618206    5.82680989147168    9.75700961552626
H         3.39392570900806    6.67409747223261   10.27985682147742
C         1.72623083714982    5.34470711820897   10.11522493173066
H         1.17388553757448    5.81534726221815   10.91431239621419
C         1.17906265483924    4.26371967822562    9.44806161320226
H         0.19958384093226    3.88961215026891    9.71518003829626
C        -0.55063672028166    2.27000363703911    7.61631719473999
C        -1.15631888818200    3.35295282928668    6.97856213140679
H        -0.54199414796823    4.10162248181451    6.49403947014004
C        -2.53379794256684    3.45534446840902    6.97948977488012
H        -3.00995222695605    4.29116904169351    6.49068297629310
C        -3.30082786580977    2.48492508725039    7.60950608380239
H        -4.37651427684713    2.56888874903976    7.61011080221247
C        -2.69470727049875    1.40861916941556    8.23849021095569
H        -3.29710466287750    0.65777492611780    8.72603288704680
C        -1.31498411638653    1.29362737618247    8.24540017440256
H        -0.83197118540058    0.45892087414688    8.73458488556619
C         1.85434201608638    0.72855687046086    8.41039809482067
C         2.02502804531700    0.74500172524715    9.79249711520937
H         1.82749802673632    1.65033005823498   10.34986108975616
C         2.44767136126742   -0.40138484780439   10.43940283946385
H         2.57861486442418   -0.39514460695263   11.51053103464388
C         2.70042377428131   -1.55554697976014    9.71398076894107
H         3.02631647166169   -2.44904194953799   10.22352139780671
C         2.54101363998948   -1.56583994029440    8.33723462791142
H         2.74307474220474   -2.46422972942628    7.77494146635544
C         2.11975976297024   -0.42514087785882    7.67925922548605
H         1.99976200348859   -0.42344456499939    6.60479537571089
C         5.59965621590805    0.71929315078204    6.08943622698799
C         5.60388883080211    1.62615364387636    7.14645754985489
H         5.62191404644158    2.68516805472414    6.92697553864007
C         5.62449873643688    1.17941305771042    8.45401516081275
H         5.62378375158927    1.89027724780331    9.26718033551192
C         5.66594636315358   -0.18009527565720    8.71710266696560
H         5.69274321540906   -0.53384335029703    9.73669418709874
C         5.69501284808162   -1.08523749062848    7.66951518419212
H         5.75490508267040   -2.14406707833231    7.87325076134445
C         5.66114971814876   -0.64312486302772    6.35829891743908
H         5.68914802098619   -1.36085798637443    5.55114259362549
C         5.25851655098691    0.06572670530163    3.29253252901236
C         4.18160962598751   -0.77339804696681    3.57386298416982
H         3.62069857415258   -0.62546283387555    4.48831911974401
C         3.83138466463257   -1.77339003080683    2.68786509831772
H         3.00269007387972   -2.42853630299943    2.91401989336908
C         4.53591020105519   -1.92785963860710    1.50328489883543
H         4.25768497748074   -2.70451303060167    0.80730328832296
C         5.58679190808164   -1.07658250443500    1.20509389179103
H         6.12104235317078   -1.18490643444978    0.27350440696293
C         5.94868268218735   -0.07921104982031    2.09398924987102
H         6.76204249018368    0.59232195718528    1.85689932715816
C         7.40829105053658    1.70702328867011    4.21196670752183
C         8.21781357949436    0.57126584777628    4.26655354732011
H         7.77067347870544   -0.40405345162289    4.40433864880492
C         9.58629960323812    0.69493082568932    4.13686677368167
H        10.20973930887719   -0.18586158843377    4.17372995244917
C        10.15827997837804    1.94637528900411    3.95909558691728
H        11.22873290276675    2.03848801369482    3.85481004810127
C         9.35771512914386    3.07378489518292    3.91922054526212
H         9.80088414360061    4.04925427742163    3.78702771004193
C         7.98355534770064    2.95925672999175    4.04861058187661
H         7.37046941880297    3.84660848450956    4.02610716328112
C         1.86121456982681    4.44970341150539    1.63297056669472
C         0.66036282847355    3.75945327571765    1.78634034315305
H         0.24651540674605    3.62031536794377    2.77676597930191
C         0.01003000044326    3.24739306657656    0.67998790483401
H        -0.92651651998108    2.72322250949696    0.80267396166376
C         0.56273349756605    3.39726333234194   -0.58270868274645
H         0.05745395117852    2.98985374918634   -1.44514776386694
C         1.76989486846453    4.05861042913343   -0.73655578329739
H         2.20886476396600    4.15992575023065   -1.71742027754523
C         2.42018284531185    4.58409362330203    0.36589436363322
H         3.36612318953389    5.09378931226399    0.24723196364178
C         1.50439894295628    5.74108529898459    4.19933277347177
C         0.23754214719097    6.14101811426908    3.78836383359909
H        -0.07508388715207    6.00707383916078    2.76309698699534
C        -0.63441597331864    6.71401679083324    4.69833590262859
H        -1.61805434595384    7.01957900264021    4.37376549998504
C        -0.24783150017790    6.90655774077803    6.01461690571885
H        -0.93218325469119    7.35556029455847    6.71885134850430
C         1.02462545738046    6.53671748013710    6.42187883842317
H         1.33854278712108    6.70645732343518    7.44127810350427
C         1.89590934674491    5.95731742598327    5.51831227208489
H         2.89638718216279    5.67952373232552    5.82195314462831
C         3.57554436020298    6.54662778894194    2.50560422178160
C         2.78037841495014    7.44111910981042    1.78764353142567
H         1.74359114584532    7.20475114439145    1.59084333777108
C         3.32153724138978    8.62184850136922    1.32067380656011
H         2.70487391322271    9.30908557677797    0.76099069851042
C         4.65297113177718    8.92322020430420    1.56764220825913
H         5.07317754631845    9.84624026876576    1.19792226994788
C         5.43903044838872    8.04222286988541    2.28828763396329
H         6.47443050266419    8.27551965338718    2.48556901301468
C         4.90404824932524    6.85555909943442    2.76133169505452
H         5.52548622728021    6.18086724306593    3.32909645405875
I         2.70462741682613    0.26105021207026   -1.03466417830484
P         1.24855086797980    2.21506270017924    7.58030325471695
P         5.61826805020718    1.44745180055749    4.41232076482605
P         2.77234221070440    5.02230574776085    3.09481335606940

