29
CSD_code = VIJJIJ | q = 0 | S = 0 | Stoichiometry = C11H10Cl2INO2PtS | MND = 4
C         6.71093634423163    9.73584780517111    4.65642427491549
H         6.84409111343850   10.22271107401287    3.69939946502217
C         6.59379427862469   10.48766092961890    5.83299012718724
H         6.63941923732995   11.56280661327892    5.77153935751278
C         6.42362610392193    9.85476360565011    7.03682541029395
H         6.33013701261739   10.41152393349700    7.95650358191833
C         6.19986543526204    7.66522706861199    8.23461404542266
C         6.16233598281667    6.29090691861191    8.16442950608924
H         6.03147399621591    5.71063071684391    9.06464340105493
C         6.29168231842541    5.64137220533819    6.94252677806810
C         6.46120350775647    6.34187027715583    5.75256795514451
C         6.49839002276642    7.76381380120872    5.83727032794947
C         5.80364776415289    8.25338705394940    0.07774396876737
H         4.83091284618525    8.47813426966405    0.50291545599637
H         5.85753883882355    7.21217225995908   -0.21844601218394
H         6.01250597007240    8.92384762566372   -0.74794722527920
C         8.54694548388020    8.16592398148980    0.39855084853843
H         8.57322886063431    8.83679467000823   -0.45232978786123
H         8.50079493475912    7.12597477503726    0.09658812238816
H         9.40771064745034    8.33940632782597    1.03604573664290
C         6.36991931831699    8.44756448861794    7.07441855000680
N         6.66445685283989    8.42072802924407    4.65890485524390
O         6.58296028330460    5.75810688432423    4.60091386123690
O         7.06512141213633    9.95158081866029    1.65451511131608
S         7.05344155792541    8.52180308569619    1.36543863467377
Cl        6.03528300364950    8.44301647079953    9.77085454959455
Cl        6.93397139928201    5.51943850044075    1.55274432838734
I         6.23975183421802    3.54874382034743    6.80848593611416
Pt        6.80435363896247    7.11164198927374    3.10786883583899

