61
CSD_code = VIJMOQ | q = 0 | S = 0 | Stoichiometry = C20H30N2NiO2P2S4 | MND = 4
Ni        5.45373095614188    7.78426228714725    7.75362408394884
S         3.92558456518838    7.36259645384172    9.43847330516127
S         5.97243258010827    9.73860603171567    8.79306436952077
S         5.30678132957961    5.61430779049864    6.95591065914313
S         6.56507751514916    8.34484552661842    5.85229692965756
P         5.46397740809296    8.37878685613526   10.20327869657719
P         5.24058990228692    6.87838739610324    5.41279210592234
O         9.73356194612341    4.32582964362969   11.02879396150830
O        -0.33829364144826    8.92804584825559    5.25650295300303
N         5.09760525336263    8.96228531612540   11.71752599795036
N         5.45707565868979    6.07379845922076    3.97258147087925
C         6.84815657292202    7.23559331339020   10.50425526922544
C         7.59059837693481    6.82317803609950    9.40366718600333
H         7.43390611659522    7.29021553007139    8.40761783726574
C         8.56662101311174    5.85431654333035    9.53302929672278
H         9.12317158848637    5.55173883055242    8.66065917055874
C         8.80799731498239    5.28237995818679   10.78116115443639
C         8.05720138889136    5.70095496261168   11.88499357133373
H         8.25639164451980    5.24187311557447   12.84054180262160
C         7.07967511262268    6.66021216646268   11.74887249054891
H         6.48549798779354    6.95942129521889   12.59927968574855
C         3.56271339273093    7.56914651013353    5.26918311947406
C         2.61098403389358    7.03261974611628    4.40873875022131
H         2.88306506297027    6.23199576437195    3.73732890306684
C         1.32291999023315    7.51698635347847    4.43008092466268
H         0.56787806930931    7.11814071379476    3.77091365246572
C         0.95468055344229    8.53145561359533    5.32038342749565
C         1.90779644528609    9.05664974844319    6.19176142108839
H         1.65621057618747    9.83386850299938    6.89533813443513
C         3.20089300599379    8.57162960272891    6.16165346957878
H         3.95436324486289    9.02344333179956    6.84178246593060
C        10.49855165514079    3.82836091385712    9.95482141994459
H        11.14818848048727    3.06779902360620   10.38503356264764
H        11.11190689923246    4.61361228214207    9.50180311541252
H         9.86351309460436    3.37207354826472    9.18930262987808
C        -0.78600229432619    9.92582959058139    6.14545357142813
H        -1.84340685124926   10.06249714097946    5.92445061714574
H        -0.25823656139609   10.87153246425484    5.98561147873526
H        -0.67121651291403    9.61385183856170    7.18804819869147
C         3.86448729831712    9.70955138998662   11.94327558574305
H         3.13262022256278    9.30096350110111   11.23541700923674
C         4.05152608038533   11.19976782503254   11.67995203479830
H         4.40821132491745   11.35871681646071   10.66390335376895
H         4.77977954101521   11.61789079533190   12.37332523465287
H         3.10890441518790   11.72542164466412   11.80705790205250
C         3.38958061139205    9.44261252693331   13.36759098030749
H         3.26762404329965    8.37434367102393   13.52651482916708
H         2.43626639729826    9.93361306159496   13.54129459246841
H         4.11419162709853    9.82317113640460   14.08501716663529
C         6.58253619010395    5.16171461454736    3.79579833325505
H         6.76854468475221    4.72059872372905    4.78293102613606
C         7.83305055465783    5.89310810178169    3.31987739434184
H         8.09290453669131    6.68472934309661    4.02020579499030
H         7.66148132236981    6.33820964032402    2.34095156171350
H         8.66833324329850    5.20189555613041    3.24616417690104
C         6.16754832238770    4.06322326037974    2.82295727531350
H         5.27088103435991    3.56511291851191    3.18234462111199
H         6.96218293660438    3.32865145935792    2.72811993787620
H         5.96382796013685    4.48584502580029    1.84082873734437
H         5.89377772371659    9.34877348333543   12.21277912238407
H         5.27649705512011    6.64545745398423    3.15438246953597

