80
CSD_code = VIJPOT | q = 0 | S = 0 | Stoichiometry = C35H43PRu | MND = 9
Ru        1.37508383695625    1.95489755227070    4.37706300054229
P         3.64897365143923    1.64526033921729    4.13329103289763
C        -0.64204774095225    2.84759381256445    5.00317085113371
C         0.38142919204941    3.60192648341649    5.65539373854151
C         1.37126980611597    2.91185363805927    6.39587593837910
C         1.20832322528622    1.51793039750590    6.68770756343379
C         0.24694065499539    0.76965847609198    5.98689606378958
C        -0.68937027241297    1.43336700153782    5.11755587509700
C        -1.77047843104825    3.57127069538349    4.31308151226148
C         0.30590032963925    5.10974406834583    5.66317203211026
C         2.48951532391970    3.67422418558528    7.06466704433674
C         1.96408928719824    0.90866350172905    7.84374362518231
C         0.12661803808354   -0.71285812595302    6.23509650506621
C        -1.89366790923036    0.70140389975574    4.57525186476896
C         3.18172871683259    0.07613547300863    3.35723526114209
C         3.85580508880329   -1.06503200743278    2.96013249844948
C         3.10353207433848   -2.12695692441766    2.47809201549022
C         1.72224462355000   -2.03244893482532    2.43358724479258
C         1.05928144453596   -0.89036669523485    2.86535190437003
C         1.77421442717761    0.20886632741060    3.33552317033868
C         1.39292505931081    3.20716465817295    2.60678417040606
C         1.07965010134333    2.80691159793834    1.16270372298859
C        -0.24246873247310    2.04174109255169    1.09290199526778
C         2.20133297340298    1.96174239064698    0.55826543171530
C         0.94902767014956    4.08786999384346    0.32068143472330
C         4.80134991629013    1.16707847988741    5.47252023466520
C         5.72010747081986    2.07585377553179    5.99047146455588
C         6.54305377147821    1.71454198557380    7.04151083945731
C         6.45762015854417    0.44494505497061    7.58974476098225
C         5.54193366308484   -0.46325259720439    7.08381563810986
C         4.71219726165331   -0.10312034044523    6.03698076808253
C         4.81105372533559    2.54270390338976    3.04394292509507
C         5.54012214147663    1.90667156341437    2.04830283857935
C         6.40420966224352    2.63718647578235    1.25154823573819
C         6.54338586117368    4.00211097552584    1.44154574654110
C         5.80970379687862    4.64359547310795    2.42675436146426
C         4.94371165712496    3.91687329029863    3.22200574274339
H        -1.44640172575994    4.52347289926200    3.90195929961510
H        -2.57288454170089    3.76326711238928    5.03001277710453
H        -2.17928933471526    2.98057505360230    3.49900583760826
H        -0.71837653982993    5.42879465839854    5.85436151172108
H         0.62170397870585    5.53481980282041    4.70915115068827
H         0.93124458026832    5.53204866547687    6.44410343343141
H         2.80829454606601    4.50940881795697    6.44437986440640
H         3.35521768387646    3.03228288677058    7.21744211937159
H         2.17390141499140    4.06596193064514    8.03518526730574
H         2.88509654111956    0.41670672457922    7.53020702353674
H         1.34114921855399    0.17585098975746    8.35344502145284
H         2.22616798031230    1.67488942983678    8.56969077795740
H         1.04654101037425   -1.11471801529468    6.65066748828278
H        -0.05679421332568   -1.24497071464969    5.30364531410539
H        -0.69183762368254   -0.92465553827524    6.92649809455569
H        -1.84866101378831   -0.36234802677048    4.78051224774538
H        -1.98305313549905    0.83135134073577    3.49774270654650
H        -2.80051745802007    1.09426949688553    5.03970925470313
H         4.93324733176285   -1.14393933664035    3.03371278585067
H         3.59482433902305   -3.03049436822954    2.14522698901986
H         1.14725456353583   -2.87092996720586    2.06229920671426
H        -0.02314837091915   -0.87670811497658    2.81554405871121
H         2.35049223549381    3.74793287906704    2.57864396436607
H         0.63089600426503    3.95161997463668    2.88130251165898
H        -1.06922645013629    2.68930155893378    1.37723042215777
H        -0.20173993330799    1.19626490378921    1.77324615961830
H        -0.42522173359328    1.67545824035800    0.08449341246986
H         3.14441507390049    2.50276226398025    0.59752938421590
H         1.98227836464013    1.72510620297498   -0.48168088707828
H         2.31416531972984    1.03419788025240    1.11010700092689
H         0.72173069855243    3.84042605878115   -0.71482218645068
H         1.87890176871370    4.65275965562297    0.34130955986853
H         0.15217546756977    4.72440262530223    0.70123987903462
H         5.79528783154663    3.06451847776563    5.55976871776671
H         7.25592883731261    2.42515451562201    7.43472292413366
H         7.10387870791415    0.16335957775063    8.40804578938568
H         5.47301780196614   -1.45488404434544    7.50836528250259
H         3.99551251175238   -0.80912849395369    5.63836449227565
H         5.41494614143153    0.84652639078776    1.88943605155860
H         6.96885324683633    2.14128183613625    0.47517592796594
H         7.21732017848081    4.56908351301334    0.81590770173023
H         5.91019505441374    5.71057604290104    2.56697519402664
H         4.34881211604325    4.40829327648500    3.98216741419843

