73
CSD_code = VIJPUZ | q = 0 | S = 0 | Stoichiometry = C30H41PRu | MND = 9
Ru        2.20045849500562    9.80662476775460    3.68149508775093
P         3.48558953666182    7.94322108502894    3.16391170622623
C         0.82511712727271   11.25668091819039    4.82127319036124
C         0.95255096890521   10.07556916617830    5.61486459377225
C         0.69661777759274    8.81788838887653    5.01858432925479
C         0.09471964649695    8.74982500837057    3.72003434449734
C         0.04360725996526    9.90262172242208    2.91703765840589
C         0.42419747700992   11.18005236185473    3.46134274031210
C         0.95476934333998   12.60030166044497    5.49277369111918
C         1.21011371070585   10.20373985972762    7.09652127145935
C         0.85351019178589    7.55431306793751    5.82913378780402
C        -0.61770167462678    7.49173767499307    3.28556418192540
C        -0.52820598461145    9.81608582462736    1.52444788413481
C         0.10620965078964   12.45626276470963    2.71875043577323
C         3.56509989565442    8.69217318046471    1.51723092503485
C         4.06352439658289    8.28636962343591    0.29303822755601
C         3.89600743598321    9.14010634742916   -0.78780698065821
C         3.23484437752420   10.34596907175509   -0.61923913792002
C         2.74169710900618   10.73761442577294    0.61928178038049
C         2.90519942083867    9.92079432788397    1.73590316636070
C         3.95861483964889   10.74046898519072    4.54701912646848
C         4.84840931749760   11.81585938928806    3.91451120531419
C         3.99227395670248   12.91871928393715    3.29176096000501
C         5.77535698729001   11.22550011095439    2.85032213549718
C         5.72547700059694   12.44177295374901    5.01264948389330
C         2.77714323834516    6.27858516001646    2.90176642240946
C         2.89412153312266    5.30974938473010    3.89507166024957
C         2.32748883397159    4.06003061463803    3.72524534407210
C         1.63306098342909    3.76421985900367    2.56306787638183
C         1.50335873963381    4.72550468440325    1.57428025806198
C         2.06432333681813    5.97932585832282    1.74497284320746
C         5.22658890283262    7.47720539529583    3.56017758435014
H         1.18844888430047   13.38468855505976    4.78080408597074
H         1.73430283748133   12.59350961750462    6.25072607584504
H         0.00926325362238   12.85483775384918    5.97863856617861
H         0.58865131947379   10.99577158499154    7.51399850243589
H         2.25308240738384   10.44744270271309    7.30520732352667
H         0.96804535641173    9.28462289051748    7.62156072737562
H         1.00922475511452    6.69547215155429    5.17982361111198
H        -0.03179321394979    7.36848914619448    6.44269903693153
H         1.71922790883032    7.62800496544462    6.48445363704305
H        -0.01848977681020    6.88331966738022    2.60809064810399
H        -1.54715640361445    7.75095237601488    2.78024886807828
H        -0.87437651392899    6.87870121348774    4.14545613659307
H        -0.50418417560390    8.79472694577675    1.15538483641068
H         0.05696691270027   10.41621999760559    0.83021445746738
H        -1.56143196808013   10.16948163901283    1.50824041324502
H        -0.70032595988145   12.98557849427494    3.23073184393931
H         0.97099194684782   13.11603697213523    2.67461189424519
H        -0.21565471180013   12.26323750070507    1.70150393259904
H         4.56517730991041    7.33435318160189    0.17577808705927
H         4.27723663093884    8.86434784896969   -1.76103995106822
H         3.10194642144244   10.99879810809350   -1.47234252165731
H         2.24197846253435   11.69642587235124    0.69175184193143
H         4.62783184343113    9.95423116981178    4.92905195160057
H         3.50900661549398   11.20831985629574    5.43583009916568
H         3.43312351410572   13.44225144968497    4.06345372625886
H         3.29801733389860   12.47266674400215    2.58604828331234
H         4.61373251331876   13.64294549097850    2.76820399632804
H         6.48512729144973   10.53788596021097    3.30607482605685
H         6.34095577342135   12.01395700158742    2.35704496656897
H         5.19752077441379   10.69003872533558    2.10306195264894
H         6.38749971471937   13.19382821288140    4.58683413280625
H         6.33680791179539   11.68180638982584    5.49533007951716
H         5.11199980559749   12.92022744163443    5.77382773119342
H         3.43374310256714    5.54068688607383    4.80339814278075
H         2.42619962114641    3.31315095297428    4.50015514545990
H         1.19341594986129    2.78679130108431    2.42903683552220
H         0.96052555466023    4.49804035715755    0.66771684861812
H         1.96441423284991    6.73400422088388    0.97630093126332
H         5.83764553692037    8.36778548382521    3.43318295568141
H         5.55534835834640    6.69674728452824    2.87412886524141
H         5.31090903693881    7.12652295872620    4.58738869315758

