80
CSD_code = VIJREL | q = 0 | S = 0 | Stoichiometry = C35H43PRu | MND = 9
Ru        2.42467471370369    2.03743242810292    2.28546439116952
P         3.00841278916283    4.07964521980103    3.00834166665487
C         1.70828182042069    0.56896804145758    0.65111333489563
C         1.52277007393621    1.90690032376123    0.18019892147932
C         0.71795651232677    2.79745616753421    0.94281694762650
C         0.03017598058678    2.33615106401751    2.10773734388516
C         0.35344297226568    1.07841835296566    2.64716498581773
C         1.14646334150819    0.15657633392616    1.87852072871487
C         2.38502053141192   -0.43002977453656   -0.25649808939962
C         1.95027696245888    2.24424921469640   -1.22904141651321
C         0.35135172891433    4.16091688692421    0.40517091925822
C        -1.14444635535642    3.12990060629845    2.62272053449666
C        -0.31165639505475    0.59681950242842    3.91195901024550
C         1.10647282691016   -1.29590061511590    2.29171489834132
C         4.45000119488000    1.52710618347941    1.93924472094135
C         4.67566550429190    0.71590789195560    3.21934987684224
C         3.39277976458244    1.14803312913902    3.94339046185251
C         5.95212779741289    1.09589771558350    3.97194985032881
C         4.71206638785019   -0.78835817152089    2.94384872252737
C         1.61481219156477    4.84234610222204    3.92252232721766
C         1.11341168315005    4.06811170248091    4.97032029728372
C         0.05113931846416    4.51370334295733    5.73284721145613
C        -0.54982540354013    5.72883325356110    5.43749596671534
C        -0.09317112534371    6.47756541726871    4.36665950930488
C         0.98274345108130    6.03961440198455    3.60980763175016
C         4.38600308041928    4.44623056776873    4.17741775434345
C         4.23393064606507    4.53600568350423    5.55591906690795
C         5.32655707934663    4.78933782857009    6.36779910063560
C         6.58502399970486    4.95648727116275    5.81734237074311
C         6.74813576684567    4.86680987449033    4.44448942032395
C         5.65934046043063    4.60973567950766    3.63321367465055
C         3.47294227464800    5.37341356631699    1.79277323487525
C         3.70995186966770    6.69783781186322    2.15127878544164
C         4.08498885838648    7.61707047393114    1.18891995573637
C         4.24698446461648    7.22196992938900   -0.13036872621347
C         4.05305193036211    5.89742285346192   -0.48465091743829
C         3.67014584094384    4.97860758880396    0.47677094167734
H         1.63518865539887   -0.93708830810522   -0.86851208376569
H         2.93653817040376   -1.18074897909639    0.30357549545491
H         3.09225026301750    0.05412545155820   -0.92317415353261
H         3.02809317351064    2.14794450842978   -1.36036702212114
H         1.46479701595800    1.56105334603081   -1.92893264991561
H         1.67060836902477    3.25459436276357   -1.50730575585057
H         1.18331786184179    4.62900112963731   -0.11495886926360
H         0.06473911437482    4.82854652148598    1.21387697437274
H        -0.48950522373427    4.08022817775384   -0.28818603102058
H        -1.78109687071416    3.40579343857232    1.78135000554136
H        -0.84789809570156    4.04478128034609    3.13090193043678
H        -1.74449454669535    2.54313329793935    3.31104927116482
H        -0.50064636420073    1.42624945474212    4.58930365593609
H        -1.26146206083358    0.10424408836726    3.68898207079025
H         0.32157086724468   -0.11470306718144    4.43525713863172
H         1.52702740914281   -1.95087232737244    1.53571379988694
H         0.06875730742750   -1.59563705979377    2.44619740302196
H         1.64380194736661   -1.46846478457176    3.22429888438896
H         1.56311851025779    3.09896923623782    5.15349583065187
H        -0.31912515283854    3.91390351608535    6.55241046697909
H        -1.38283316507588    6.08019202301981    6.02860430531763
H        -0.57799576229878    7.41030618909666    4.11509902941991
H         1.32000828348757    6.63191661417770    2.77141417785547
H         3.25865354834973    4.42004182818245    6.00425000614439
H         5.19168236537212    4.85832714890996    7.43787013860130
H         7.43476933710517    5.15553303207132    6.45368566176647
H         7.72752889201554    4.99308774291074    4.00603889949162
H         5.79146950875764    4.53608969906379    2.56269911124206
H         3.61741732458364    6.99933533242757    3.18599391897125
H         4.26063360052114    8.64638976593421    1.46768623542074
H         4.54060960324767    7.94539953829478   -0.87715023991339
H         4.20614408562077    5.58312582079697   -1.50755640083687
H         3.53987279275373    3.93007420090746    0.23945981014973
H         5.17384157653177    2.34536100663075    1.86393786298321
H         4.53883218776658    0.90719714914685    1.03788500346975
H         3.64007832181566    1.77825910780045    4.80612992551589
H         2.82097042421077    0.28587509476783    4.31230018830506
H         5.95535508784272    2.15621186467222    4.20622273927746
H         6.02305267377943    0.53679484890462    4.90410399131191
H         6.83087855459901    0.87138054580309    3.36869685998609
H         3.83159670527764   -1.09565275857137    2.38696020310357
H         4.74388507589456   -1.34850396611009    3.87793474803747
H         5.59556408855971   -1.04608896281086    2.36073204803076

