33
CSD_code = VIJTIS | q = 0 | S = 0 | Stoichiometry = C8H12N2NiO10 | MND = 6
Ni        5.67402390264498    7.72794306091315    2.21025755706721
C         4.29210480110230    9.38069172902747    4.06742027950087
O         4.53358296926201    9.13116907195915    2.84849025444151
C         4.00140663312630    8.57282075249294    5.26856273009781
O         3.91974057225435    7.36788657267778    5.47448694098760
C         3.81449998391199    9.84883333922620    6.04266889408970
O         3.53866684550603   10.17637760353098    7.17413880722889
C         4.09542074506526   10.57672773035073    4.79989905862270
N         4.12557118569647   11.88339795390714    4.49326551753329
H         4.22575702325610   12.16623559760879    3.53302921888161
H         3.75703065051111   12.54228224705223    5.15879055395561
O         4.64366240006761    6.23109064554460    3.21546342603617
H         4.28601952356502    6.60537024041484    4.07147428948760
H         5.31853535102030    5.60564727376922    3.50021999559021
O         7.29583627241948    7.38765156973575    3.95167374538974
H         7.57628476621248    8.29408739008428    4.11032648267632
H         7.97768185389499    6.97366625093218    3.41112237091080
C         7.05556387807258    9.38095141758350    0.35307008419558
O         6.81350931434983    9.13167361177174    1.57192845602770
C         7.34687178639247    8.57293970029783   -0.84781087756276
O         7.42933974870302    7.36798775936357   -1.05338494148364
C         7.53355751428096    9.84883772657573   -1.62214053742857
O         7.80926950100606   10.17621734309632   -2.75368508694897
C         7.25229466147817   10.57688772516952   -0.37954200382495
N         7.22192745853847   11.88358447990105   -0.07297637227345
H         7.12195613674256   12.16630840591608    0.88732822286111
H         7.59075711534531   12.54245442327870   -0.73835425475102
O         6.70400364316272    6.23106183336319    1.20490201655127
H         7.06292619492666    6.60584752849563    0.34946935283316
H         6.02785933657192    5.60718391054516    0.91863501097712
O         4.05127288687370    7.38723792498267    0.46954937685066
H         3.77032139521782    8.29377351617929    0.31159314663287
H         3.36994394881955    6.97277366425525    1.01062828485343

