74
CSD_code = VIJVOB | q = 0 | S = 0 | Stoichiometry = C31H36Cl2N2P2Ru | MND = 6
Ru       11.42564243327144    3.07775765288998    4.54742319469837
Cl        9.37839089904952    2.37431336576803    5.59595963082588
Cl       13.40720975894570    4.22392430248534    3.83466199603810
P        12.24489479583527    1.16442230847338    3.59655188181720
P        10.52599052447557    3.73470589206974    2.56756771089631
N        10.86933056027097    4.93653048503370    5.57344051642973
N        12.27980270425388    2.54664300204406    6.48604187818758
C        13.73866594981793    0.54650879235020    4.46358878468031
C        14.93007994410009    1.26730054561077    4.40469630897785
H        14.98206536046947    2.17540575707105    3.82284663602896
C        16.03599141430978    0.84656684939012    5.12073140106152
H        16.95597265079070    1.40954101923592    5.06210183436432
C        15.96639469778236   -0.28726149554711    5.91394949388276
H        16.83214725822948   -0.61488756371499    6.47057873161853
C        14.77863851026079   -0.99447841798255    5.99851911298144
H        14.71338469127373   -1.87255716969397    6.62484186730663
C        13.66937484227586   -0.57946615702444    5.28293799655502
H        12.74366646606381   -1.13376057781976    5.35789575182138
C        11.34254566229333   -0.41889108067540    3.41618509676907
C        10.25566619850352   -0.64437877874063    4.25621349612734
H         9.95721664985307    0.12425014673566    4.95648685926729
C         9.55531575052502   -1.83630905017506    4.19875234031236
H         8.71018718812204   -1.99327422702327    4.85296491882105
C         9.93872876784642   -2.82170435327757    3.30569494447843
H         9.39124036219160   -3.75154736406557    3.25254470493573
C        11.03752006666512   -2.61675946199788    2.48713061026167
H        11.35200982973974   -3.39111218419487    1.80176347592888
C        11.74112426052372   -1.42783877659755    2.54534327484144
H        12.61043172811036   -1.30173786988214    1.91744575087586
C        12.92730329766467    1.45559880431994    1.89575895294729
H        13.70309594955773    2.21499341011672    2.02319134588170
H        13.38100593094664    0.53691514246458    1.52014425403457
C        11.85375580802781    1.96362421065589    0.98485768315516
C        11.58948914943170    3.43279815957897    1.07865216965593
H        11.05654771012955    3.80767905605451    0.20020512262758
H        12.52236970932773    3.98161550485351    1.22487789423478
C         8.98128485995251    3.04151474562249    1.89969659472344
C         8.21623774434570    3.71607639641490    0.95313028281169
H         8.49198554874262    4.71630481604713    0.64577106465859
C         7.10062641124392    3.10752759872282    0.40971974737083
H         6.50365584239414    3.63531894705373   -0.32062391935952
C         6.74821028136006    1.82303733899529    0.79517311157752
H         5.87505527639898    1.35351776325324    0.36555942559087
C         7.51454504567320    1.14496213385854    1.72749637154551
H         7.24731972171202    0.14243994940707    2.02822694735552
C         8.62774344037828    1.75414862331555    2.27736048777225
H         9.22999180608542    1.24168773818550    3.01291234584342
C        10.20461748468333    5.52689180466266    2.48618456943615
C         9.01121163203702    5.98870905004731    3.04667259666133
H         8.29145046788785    5.26706025385656    3.41529359581454
C         8.75140233193513    7.34416299452282    3.12274150431961
H         7.82094703310131    7.69263823840642    3.54745911250813
C         9.68874013703306    8.25428739724453    2.65773303220804
H         9.48742065719560    9.31382213648752    2.71655835583363
C        10.88639783316066    7.80364636470517    2.12769192746715
H        11.62246978804019    8.51325166645204    1.77915109147841
C        11.15017632878880    6.44685760899748    2.04590341798377
H        12.09653689424655    6.10595785544034    1.65511610949895
C        11.85425790382037    5.61583576902104    6.41401773622980
H        12.72789086106093    5.84393139020027    5.79465828084316
H        11.44327096336711    6.56327308453846    6.79321034416024
C        12.27950595534339    4.75307304279932    7.60039594906323
H        12.88224127044784    5.36538228026122    8.27300329148773
H        11.39052918521594    4.42433979980443    8.14924884443294
C        13.10019240305047    3.53266491571151    7.18811880880033
H        13.55016800851692    3.08674944557766    8.08741023377777
H        13.90759627873107    3.83988028341028    6.51485463591608
C        11.15473688851936    1.16890292215541    0.18433531484569
H        10.05275230345622    4.66542707840072    6.13475290610737
H        12.82136512772199    1.68669767943868    6.37773696851770
H        10.37761821589262    1.55168967691290   -0.45543427195382
H        11.45084065014364    2.31002954340623    7.04556616384849
H        11.33556952239949    0.10916214570590    0.13248497840984
H        10.53684041492146    5.59480964212930    4.86586441906644

