66
CSD_code = VIJYUI | q = 0 | S = 0 | Stoichiometry = C32H27NO3PReS | MND = 6
Re       10.34852656705274   -2.08322895790585   10.49392303447807
P        11.38936605492946   -1.36237547320055   12.59698153177711
S        11.79292182027235   -1.05094786864301    8.80881664982337
N         9.26714761509846   -2.74398863364172    8.75891357817797
O        11.22903398382132   -3.48547806316772   10.50456561315909
O         8.73310673992626   -2.99178753611449   11.76202656182834
O         9.33693748929156   -0.63200698809011   10.51784592855114
C         8.00982968147429   -3.95271856979172   11.33468316730895
C         7.24615481390088   -4.65756953499952   12.30906442858064
C         6.44893577823832   -5.71848427307330   11.99098056144551
C         6.34537553649090   -6.15121656513463   10.66338867072946
C         7.04126341020748   -5.48857008642378    9.69245949823748
C         7.87451470459261   -4.37847127234201    9.96961530123844
C         8.46339124726670   -3.76164128908481    8.83495457045717
C         9.62107855923229   -2.19605313941811    7.52437065234271
C         8.82448416677059   -2.33232163903632    6.38280696838700
C         9.21309820804513   -1.80073178724808    5.17028128463439
C        10.41306675770111   -1.11138183090652    5.06503590006606
C        11.19136280500471   -0.92233196891066    6.18677481473370
C        10.79955713139160   -1.43194836875595    7.42271057677573
C        10.30446286528702   -1.81212190331198   13.97309253422957
C        10.25101450661550   -3.15606757179678   14.33880345230591
C         9.34427870838456   -3.57629555839443   15.29260289320543
C         8.47628875370642   -2.66473739768791   15.87522682811741
C         8.50842335064841   -1.33372712972404   15.49383023235835
C         9.41321542958202   -0.90637473649074   14.53768414572706
C        12.99637059942877   -2.11877761210773   12.97964690629341
C        13.83982754391950   -2.42450908754052   11.91627102477845
C        15.09662515573884   -2.94640885920749   12.16446952345349
C        15.51501207352177   -3.16160548044154   13.46784885034527
C        14.67502992512716   -2.85690400200911   14.52693234628402
C        13.41747173219559   -2.33295829105639   14.28773711110956
C        11.76939129397705    0.40486179344537   12.80972208255080
C        12.01933273905142    0.93519433831393   14.07244854627809
C        12.35319661420907    2.27000604498298   14.20630284640445
C        12.44888055804181    3.08011806654397   13.08523840338502
C        12.21630253570794    2.55147896636786   11.82660040490032
C        11.87987363374469    1.21601471584701   11.68598090866141
C         8.43354254671335    0.36775669161147   10.68735376940224
H         7.34467417848270   -4.31415437329282   13.32855576264281
H         5.89782108203532   -6.23127727997959   12.76657562090809
H         5.71978688263836   -6.99442082918418   10.41419411369431
H         6.95651123918691   -5.81465830266739    8.66426608120581
H         8.16242587668802   -4.22478531595450    7.89357329915207
H         7.87127377179805   -2.83607763865028    6.44986382343061
H         8.57513666666240   -1.91940477102027    4.30742429623496
H        10.72468210342399   -0.70384120443873    4.11531565302718
H        12.11161055174474   -0.36119521905313    6.13809182504941
H        10.91095764085448   -3.86063681877357   13.85078832130584
H         9.30200616180912   -4.61865612743168   15.57400074029238
H         7.76297939557510   -2.99531913364238   16.61649469926066
H         7.81888644742733   -0.62786858638954   15.93475397766595
H         9.42527482722417    0.12950646839234   14.22548016685208
H        13.48917160633145   -2.26934919788598   10.90429399573071
H        15.74923332506057   -3.19000585851331   11.33978385668964
H        16.49501432152137   -3.57272639527088   13.66077182329526
H        15.00019067545799   -3.02954185628214   15.54263721742649
H        12.75924751443261   -2.10574984746352   15.11488595357519
H        11.95014247195438    0.30345688558670   14.94662792539639
H        12.54286747294532    2.68056047052514   15.18735524240586
H        12.71041128862399    4.12226547456872   13.19503440955424
H        12.30082371102812    3.17824806268015   10.95122235785939
H        11.70989793009725    0.79319344453169   10.70455764054578
H         7.92496570503159    0.59399880484478    9.73780478435189
H         8.92882060268783    1.28521911063701   11.04153730970754
H         7.67549291312139    0.07003089244822   11.42761700024245

