27
CSD_code = VIKBEX | q = 0 | S = 0 | Stoichiometry = C6H16I2N2Pt | MND = 4
Pt       -2.35373801557912    0.33456543835360    7.45960521159759
I        -0.92932743337154    2.12930638676979    8.63672237498448
N        -3.39736822248079   -1.30676848164456    6.44398762486977
C        -2.60692796405732   -2.50707293457389    6.74162778362983
H        -1.75622164139302   -2.53809883728097    6.05479127688026
H        -3.20590121328434   -3.41349561836193    6.56554338316753
C        -4.73874874926998   -1.41209347892009    7.02007034276526
H        -5.25442849857870   -2.30678082161968    6.64918006191738
H        -5.32350206254990   -0.53543303371907    6.74489107072240
H        -4.69397206641499   -1.45953151920563    8.10855851037969
C        -3.51787721286295   -1.18328059450532    4.98972632127270
H        -2.53927500026701   -0.99548999156076    4.54608559586465
H        -4.17041693941650   -0.35097782759265    4.73584717471153
H        -3.93611373408698   -2.10000237739787    4.55781372758601
I        -3.77852073340624    2.12907638455806    6.28341743410061
N        -1.31057756901832   -1.30672603036246    8.47583986697321
C        -2.10099314848987   -2.50705153412187    8.17821312483377
H        -2.95169854434822   -2.53808573353461    8.86505088498090
H        -1.50200542384139   -3.41346186365127    8.35431245351909
C         0.03080257618886   -1.41206200231546    7.89976477324193
H         0.54649128870450   -2.30674012207909    8.27066415181540
H         0.61555113193680   -0.53539187636811    8.17492006838330
H        -0.01398988908299   -1.45951337404648    6.81127917983434
C        -1.19005681057298   -1.18325962332783    9.93010936699680
H        -2.16865218596177   -0.99543226356812   10.37375872261332
H        -0.53747107786656   -0.35098995675826   10.18400290068785
H        -0.77186086062962   -2.10000831316533   10.36201661167034

