51
CSD_code = VIKBAS | q = 0 | S = 0 | Stoichiometry = C26H17N2O3ReS2 | MND = 6
Re        5.50861663718694    0.64292142214435   19.27453726823272
S         5.62054628642687   -1.13870736880400   20.88888492930096
S         1.88446060709391    3.25595489897788   20.72011983505384
O         4.87911736485886   -0.27618866298925   18.05505426235055
O         5.71463324306758    2.47430996586373   18.02723674235467
O         6.18395056773698    1.81281332502942   20.53276285194680
N         7.47914436908442    0.10462764818250   18.89082207747204
N         3.61372485397750    1.51323619473877   19.94030489511873
C         7.14344426530521   -1.80178509960045   20.33416225973337
C         7.58080400470592   -3.01032194837607   20.86733976103109
C         8.74929298450669   -3.59243277183030   20.42152511605308
C         9.48599998769386   -2.97884179195501   19.41864488452136
C         9.07469240484277   -1.76864308114249   18.89573725075920
C         7.91857832397089   -1.14132566405805   19.36383251955659
C         8.32598506329355    0.95224749469958   18.38048512409602
C         8.11267123959836    2.22083210821899   17.78803072869776
C         9.28098154296840    2.87178189288138   17.31582414467565
C         9.24780147940827    4.07744672954146   16.67783393037456
C         8.01243585702267    4.70613210934443   16.46978777710272
C         6.86112946591567    4.12492091323656   16.91270250882310
C         6.84746993068449    2.87975130467516   17.60519443859796
C         5.94425152770716    3.02025489135427   20.93921716957580
C         6.97851919309561    3.84241407417521   21.41488117389469
C         6.72584633044831    5.13275148515748   21.81723027489076
C         5.43198828438149    5.64447223709418   21.77398434835129
C         4.39803113962167    4.85376045807896   21.32845855727356
C         4.61994132334112    3.54044408441301   20.90327200602087
C         3.53034772549080    2.70833869187474   20.47177014015985
C         1.30043308961948    1.75358191447947   20.07592248885131
C        -0.01111182701229    1.33770129642196   19.91495570185312
C        -0.23112947810742    0.07951101735959   19.39218078894773
C         0.83718620410794   -0.74565635813200   19.04244497887289
C         2.14303770375483   -0.33441543436894   19.20041029062372
C         2.38762589560638    0.93867844630319   19.71491261536572
H         6.97503474809520   -3.48488788311027   21.62311764192984
H         9.07616079056710   -4.53354618830818   20.83649252358063
H        10.37981392078230   -3.44748853607392   19.03588784701420
H         9.64154184822810   -1.32774408672397   18.08961824943104
H         9.37583273363341    0.65993975337040   18.39953132156593
H        10.23169338375765    2.37867828459087   17.46779638976122
H        10.15773785866079    4.54175099353846   16.33094676451702
H         7.97431831614504    5.65751616245009   15.95949486905150
H         5.90202604677529    4.59859024884669   16.76736219100251
H         7.97873982914198    3.43513820358392   21.43670625712459
H         7.53799630854773    5.75243988455821   22.16676522729259
H         5.24001822421874    6.65787859631305   22.08930767489910
H         3.39185853192370    5.24694667994044   21.29234377765837
H        -0.82738865828124    1.98374898952011   20.19592854116828
H        -1.24331872320197   -0.26970725768176   19.25823871919594
H         0.63668301107887   -1.72756392501052   18.64320307943075
H         2.97680423852724   -0.96575634279812   18.93119508483825

