69
CSD_code = VIKLEH | q = 0 | S = 0 | Stoichiometry = C34H28Cl2N2NiP2 | MND = 6
Ni        8.66326200401348    2.12891580080652    9.51855807046436
P         7.07025123074932    4.58394386303703    9.35459475570161
Cl        7.05654681466543    1.97947314105681   10.92807107634290
N         7.43767171528348    2.17741555116985    8.15518106731923
C         6.73322517140108    3.30697501694948    8.04688542062513
C         5.79858087331615    3.47183587677152    7.03229813667801
H         5.24945332737541    4.39671811323753    6.95946185567847
C         5.57949834392064    2.44217969553296    6.13593711573190
H         4.85388108537221    2.54983687575881    5.34343300923185
C         6.30507894916283    1.26933796637304    6.27758136549982
H         6.16203690903088    0.43656235919908    5.60788662133978
C         7.23168849460815    1.18045542802401    7.29930932187603
H         7.83284891754239    0.28880633811414    7.43065188165310
C         5.32430322317198    5.05680636115246    9.67980261268714
C         4.75629764225237    4.51782954036611   10.82973689675136
H         5.34603213093333    3.85038386224845   11.44142078968401
C         3.45049749604051    4.81634397546934   11.17465582009546
H         3.01842991100290    4.38820879910559   12.06727934753822
C         2.70048072422957    5.66458140176277   10.37812998050704
H         1.68045100680725    5.90120044976667   10.64412504384075
C         3.26405245545956    6.21587491200895    9.23901467592958
H         2.68417059281454    6.88455242322434    8.61836754634952
C         4.56860760408941    5.91813124298812    8.88918482646898
H         4.99823667526834    6.37511408357736    8.00807548708007
C         7.61313621121548    5.92875976232576    8.24577461983427
C         7.36893680791471    7.25550351798182    8.58732737245406
H         6.74458986065210    7.47926362394038    9.44186429372058
C         7.92221975817682    8.28081913282318    7.84359565618156
H         7.71496827515552    9.30775638163135    8.10833898929095
C         8.75413477234824    7.99400152396988    6.77328581022281
H         9.19169315927357    8.79681436642971    6.19790839378903
C         9.03555326523328    6.67657974177039    6.45218131274920
H         9.70020283102129    6.44901517176840    5.63147243430492
C         8.47507080652857    5.64802394495971    7.18785248583074
H         8.70216378116512    4.61982686141033    6.93564729658141
P        10.06795616439594    4.50208222236112    9.67815256385571
Cl       10.26450050350526    1.76977379141313    8.13259810978139
N         9.88032389501169    2.11455420987146   10.88350041099972
C        10.52932244884835    3.27635283848984   10.99797331152436
C        11.45560121031979    3.48055978353056   12.01133619415952
H        11.95875735421153    4.43000453853403   12.09469233936022
C        11.72118096243863    2.45354053465848   12.89965562173398
H        12.44100684510423    2.58873562987166   13.69323971343311
C        11.04968678631245    1.24955841174851   12.75267203312064
H        11.23071786642420    0.42202702272208   13.41970252799106
C        10.12719372191316    1.12240537448753   11.73031931937708
H         9.56681607084294    0.20595469557628   11.59021694908671
C        11.76708814179849    5.00081273723806    9.19029123535108
C        12.22018466060493    4.52858300155325    7.96327220518615
H        11.58024552876343    3.88367778986300    7.37915133943476
C        13.48418238130666    4.85757909087635    7.50734942037473
H        13.82762467981170    4.47997787095448    6.55546308360027
C        14.30611497933825    5.66905654775961    8.27002624367122
H        15.29427273405429    5.92786199984941    7.91830820541829
C        13.85569446262634    6.15491385268372    9.48682676848818
H        14.49116144576449    6.79580518454142   10.08177218799221
C        12.59356958520369    5.82724593742366    9.94672710275156
H        12.24995956383348    6.23777877636988   10.88603316494043
C         9.59063533966241    5.88001754052642   10.77328326189893
C         9.85486533981163    7.19853337970621   10.41857873033931
H        10.44968466372850    7.40763547576383    9.53992947982938
C         9.35669568064745    8.23765748880257   11.18282847171430
H         9.57665277153593    9.25884752223378   10.90646593396401
C         8.56546746472765    7.97227218311406   12.28836880167340
H         8.17293392920211    8.78629918578476   12.88026616797702
C         8.26509486585040    6.66225830559399   12.62401586828859
H         7.63037109901407    6.45213371077967   13.47243254966169
C         8.76686531347962    5.62022476653012   11.86630413841061
H         8.51841871286614    4.59783149190958   12.12125515450178

