80
CSD_code = VIKMAF | q = 0 | S = 0 | Stoichiometry = C34H31BCuN9O4 | MND = 4
Cu        7.00760794521198    8.81876266044168   13.75609780030126
B         8.35143493196007   11.69586398731210   13.02138194079577
H         8.83650277622058   12.73605808210444   12.75511933910143
N         6.13753990770983   10.59368790512643   13.06701096779358
N         6.82343858686316   11.70202529732852   12.83166108319238
N         2.57759576256475   10.24562474496651   13.15196619834679
H         2.47312546388557   11.25047790860107   13.13767290099925
N         8.10764994125082   10.15320955540804   14.93843973737400
N         8.61494305386795   11.28909953175919   14.48401721708513
N         8.79816221891128    8.58066666179132   18.07340470201503
H         9.57586348878825    9.20803597455389   18.22372886157089
N         8.48035781765200    9.31793149459362   12.35112126981292
N         8.90382962608017   10.55562144193381   12.14466135129881
N         9.26425327153988    6.41686143363518   10.40051255793860
H         9.65558564233434    6.99958720108752    9.67383384204143
O         4.14838408638503    8.58619706742599   13.03702169468044
O         7.07535995094673    8.14405943134688   16.63251975226488
O         8.32418438699828    6.50503279671311   12.48414577543365
O         5.79164185119061    6.24362418805546   14.42790729078636
C         4.85093810268836   10.83719014646874   12.85169148325786
C         4.70622667259706   12.17794453912418   12.45104873948732
H         3.81436478141463   12.70277020539478   12.17012766915753
C         5.98935647199776   12.69113174839183   12.44752537377222
C         3.85148983223897    9.76363572734122   13.02248073767638
C         1.32845639505219    8.15502471471435   13.42182743661898
H         2.23740731450205    7.58175248414057   13.35525602626854
C         0.10808457694338    7.52913726121810   13.59859986847000
H         0.07389307161861    6.45216649522354   13.66889732075432
C        -1.06170952996794    8.26455541990338   13.68678776212161
H        -2.00996940469194    7.76721646676565   13.82471958936476
C        -1.00763674770384    9.64564273132365   13.59819305317238
H        -1.91324930009914   10.23059507503566   13.66669064749480
C         0.20532456173400   10.28223133195208   13.42231989417373
H         0.24454977433465   11.36147774557816   13.35473750541628
C         1.38419150812018    9.54297755314078   13.33153377417309
C         6.44140631994095   14.06452446852745   12.10311872735791
H         6.93311687382574   14.53139167252543   12.95486785304100
H         5.58636214378604   14.67057058880462   11.81567076807782
H         7.14921545995099   14.04014966007897   11.27655082153833
C         8.47611928673978    9.99970899420198   16.20375151955913
C         9.26129526100449   11.10373053255298   16.58239568654016
H         9.69937100193989   11.31965721628447   17.53696704607776
C         9.32049531555975   11.90363471392994   15.45675977358316
C         8.02942652570180    8.81697942606339   16.96670978134997
C         7.70358250954087    6.57549706106722   18.95912631384876
H         6.98529208431433    6.59101825039139   18.15723821113753
C         7.65948582221911    5.59135100836542   19.92954499465849
H         6.89149995679568    4.83410870887996   19.87696604077063
C         8.58421061639738    5.56715785259293   20.95972416688661
H         8.54213182126370    4.79476504560537   21.71285697989498
C         9.56675134314864    6.54154928917994   21.01742081286483
H        10.29468688721154    6.53272479065163   21.81555315955660
C         9.62140828901160    7.52937299884663   20.05367768591006
H        10.39122892348086    8.28833530556614   20.10065311336046
C         8.69033020091219    7.55574474625933   19.01602734691248
C        10.01406558647688   13.20559501748670   15.27479106168934
H        10.76229348991345   13.13510905089987   14.48715139084653
H        10.50490661091798   13.49228607454128   16.20100905006294
H         9.30445324007823   13.98308031198023   14.99745078590596
C         9.09833420123134    8.51003923171402   11.49867686501337
C         9.96870327129587    9.27587249517834   10.70155460369543
H        10.63926717409194    8.94769160625500    9.93187666250101
C         9.81600544569421   10.57406701416524   11.15004899005223
C         8.84266042176131    7.05630174273942   11.53427887214009
C         8.69240173224681    4.09868108163742   10.95143071848311
H         8.29658932855530    4.40329174022831   11.90527219141882
C         8.68535720505048    2.76814382852919   10.57471720422599
H         8.27808291409614    2.03152101756503   11.25112863926909
C         9.19157198047617    2.37413678815586    9.34773067660383
H         9.18246441942801    1.33294381334054    9.06243724880109
C         9.71013003965448    3.32647505241031    8.48615229850654
H        10.10698148451999    3.03184423239579    7.52560391735100
C         9.72284247357730    4.65840477892358    8.85124209071886
H        10.12854129071552    5.40004567751864    8.17578643276253
C         9.21530606740918    5.05676045587668   10.08744378362993
C        10.49025236176105   11.80958576673972   10.67249562963718
H         9.75933989987817   12.52650167562761   10.30241839966372
H        11.17960361643867   11.56407599463601    9.86906100173927
H        11.04601852136461   12.28115619029176   11.48097024089611
C         6.26203178942214    7.23994002087925   14.16452927721585

