95
CSD_code = VIKMOR | q = 0 | S = 0 | Stoichiometry = C36H38CdN8O10S2 | MND = 6
Cd        0.00005128895190   -0.00007286558544    0.00014297121993
S        -2.93479029832834    0.89646536895414    4.58666330602708
O        -3.81240820891490    0.40081367708721    3.55600128680398
O        -2.68619674025765    0.01998353760489    5.69561107891852
O         2.22863792116485   -0.40193840077246    0.17108378888163
O         0.04013004816155    1.15339994585111    1.69659233041588
O        -2.68988581849199    4.24551637745314    2.09203376812629
N         0.24138830550042    1.90292719622436   -1.01233412105593
N        -1.50387943344765    1.30320986839360    3.88263855998291
N         3.49525422649796    1.36386286617276   -0.48736264867693
N        -0.93095517279464    3.00455086186115    0.71130805257608
C        -0.46680115699689    2.95171773016821   -0.56751851247574
C        -1.64073594150739    2.29121665132592    2.86222442019921
C        -0.74425272020520    4.05040749349524   -1.40746846118725
C        -2.53211587333753    3.37355951512328    2.98516351425374
C        -0.26706063641084    4.05197849169296   -2.69506785793835
C        -3.74852719886071    4.80011227696966    4.62014822730349
C         0.47919425649043    2.96100184002980   -3.14164990469998
C        -4.41871504138330    4.98492532827193    5.81427399953018
C         0.69071197934707    1.91442844794457   -2.27051244572204
C        -4.63500656308265    3.91660054870775    6.67413089181480
C        -4.18928736041250    2.65237275917812    6.32436640603316
C        -3.53251675199072    2.47743859066024    5.12427568800545
C        -3.28345450541531    3.53517560003348    4.25892339504113
C        -0.33296125530653    1.36531341784801    4.72977824961243
C        -0.80480503782007    2.08110164261458    1.72811924755768
C         3.03079689668521    0.12553391744314   -0.59940325173021
C         4.40908845311161    1.92070184147735   -1.45248325436155
C         3.09025508635582    2.22810053782884    0.59719992382450
H        -1.33442418975158    4.86636382593155   -1.02071914934249
H        -0.46826404916078    4.88500565829497   -3.35255103281267
H        -3.57134676951886    5.61996978489463    3.94061875900310
H         0.87639237064505    2.92118371484498   -4.14263460383166
H        -4.77544000232624    5.96866639408253    6.08159673274460
H         1.25018071238815    1.04066050434487   -2.58634608932253
H        -5.15359002622931    4.06785457448818    7.60869345480116
H        -4.34039642873558    1.79525868735927    6.96170773243599
H        -0.21966801966597    2.35059524875920    5.19611790451121
H         0.54705005587638    1.14143838139551    4.12766450845879
H        -0.45895574836622    0.60906987059769    5.50077183682708
H         3.44524176817349   -0.42572748562164   -1.45500531407990
H         5.38087095713741    2.11268055704782   -0.99096002581934
H         4.01188003001895    2.86375615357553   -1.83337245321139
H         4.52927391471342    1.22854153172471   -2.28411550614872
H        -1.63907987213338    3.73541507489718    0.96755753420940
H         2.33373380205939    1.71641236154564    1.19204362139381
H         3.95090229783779    2.46686563325954    1.22653266978626
H         2.67369048975060    3.15722911797151    0.20251380246196
O        -2.22851808602892    0.40167613759502   -0.17080954989684
O        -0.04019570592171   -1.15348353893209   -1.69632685836248
N        -0.24106300764603   -1.90316358551842    1.01254939068681
C        -3.03055660645899   -0.12589184515152    0.59973991348458
C         0.80475881811419   -2.08115686171823   -1.72803801064730
C         0.46714116410515   -2.95189045328359    0.56760394467950
C        -0.69014184897088   -1.91469676700893    2.27081451757822
N        -3.49492328696045   -1.36425602156737    0.48770283165309
H        -3.44507096673264    0.42535242119475    1.45531799309506
N         0.93107826780325   -3.00467302505367   -0.71130476013870
C         1.64052947050909   -2.29115017779420   -2.86227706026499
C         0.74485193605106   -4.05055244853467    1.40750404757144
C        -0.47838764839387   -2.96126222397357    3.14190515901507
H        -1.24972536266219   -1.04102256992763    2.58670544480888
C        -4.40863499303466   -1.92119170357702    1.45288206370990
C        -3.08994126123444   -2.22844241769926   -0.59690747899744
H         1.63917463628621   -3.73550343597601   -0.96770095226110
N         1.50354982970043   -1.30300675622206   -3.88254010231406
C         2.53190986343476   -3.37346504176382   -2.98546248567905
C         0.26787051034265   -4.05217928990857    2.69518132156476
H         1.33506934801851   -4.86643222471989    1.02066369778103
H        -0.87542956345630   -2.92150563836192    4.14295421070215
H        -5.38037306252342   -2.11343491229181    0.99137747457963
H        -4.01122030793948   -2.86411866711512    1.83387380118000
H        -4.52897973104073   -1.22896595597977    2.28443615384902
H        -2.33347050478105   -1.71670246212848   -1.19176864569511
H        -3.95060522276109   -2.46723021713109   -1.22620987347984
H        -2.67331516055076   -3.15756222141122   -0.20226723036128
S         2.93440204799074   -0.89615754490814   -4.58661098142696
C         0.33254379605776   -1.36495792060851   -4.72956543046181
O         2.68982125125583   -4.24551463531864   -2.09245252225048
C         3.28303462606495   -3.53492220580242   -4.25937049540788
H         0.46931338503732   -4.88516372312300    3.35264480960065
O         3.81212251959875   -0.40074989217701   -3.55591867002785
O         2.68573982649059   -0.01943753924547   -5.69535538771158
C         3.53200069063875   -2.47705389535915   -5.12459151347373
H         0.21916512849129   -2.35017702202976   -5.19601628529053
H        -0.54739685759596   -1.14112024985198   -4.12733391515808
H         0.45849018322479   -0.60862064752979   -5.50047551304950
C         3.74798136236063   -4.79982157682005   -4.62088289017244
C         4.18854359017640   -2.65182292849065   -6.32483016014095
C         4.41795513369533   -4.98446843180661   -5.81515512936917
H         3.57087353999058   -5.61978562368680   -3.94146297141143
C         4.63413698702581   -3.91601594566594   -6.67488062826281
H         4.33958797014258   -1.79460985738812   -6.96205425526784
H         4.77456171161775   -5.96818822881726   -6.08271497689298
H         5.15253755043429   -4.06714488085699   -7.60956507200930

