94
CSD_code = VIKNAF | q = 0 | S = 0 | Stoichiometry = C24H56ClN3OP4RuS4 | MND = 6
Ru        3.66641618377576    2.40858656509844    5.98660274736960
Cl        5.75945075406529    1.99604027484027    6.62247872597926
S         4.46435672900380    1.67384085588367    3.73716890920034
S         4.20370829041142    4.83814498385571    5.80606776472594
S         3.22570794652985   -0.03119127131557    6.17549155517453
S         3.02386068416760    3.18846291104182    8.30236920863065
P         3.66441254199053    3.01900053567496    2.46129775702171
P         4.61156876038099    5.40897935814481    3.90323798018093
P         3.02014871060708   -0.60933332595640    8.11009117956246
P         3.80411152676789    1.85312582860706    9.60711665473398
O         0.92720306910551    2.90476273583092    5.56742019297578
N         2.06742819128587    2.69457884853457    5.64317698969393
N         4.10031370000540    4.56641415083909    2.62273374837243
N         3.45039069357453    0.29491077081600    9.36820421486511
C         1.79510801182939    2.98581273299287    2.49269189186623
H         1.56482376747121    3.64560315895973    3.34175942700989
C         1.20311883458614    1.60722487933653    2.75197470302562
H         0.16855406261484    1.70737407538948    3.07559992325496
H         1.75706204928044    1.08409159397854    3.53474957322050
H         1.22376204160591    0.99207619161739    1.85641144467858
C         1.24329222335807    3.64624893208524    1.23538222709680
H         0.18495251389136    3.86446955037889    1.36819014661987
H         1.35001093914362    2.99799262560332    0.36864552089073
H         1.76860758643643    4.58030248119133    1.04015763601886
C         4.25001140495824    2.52570970082925    0.77393074781273
H         3.82002088123406    3.26753749079892    0.09135186472966
C         5.76844669571131    2.62406798628400    0.72761038222204
H         6.12940070551423    2.39662349431184   -0.27408618616769
H         6.21012587853067    1.91473713038479    1.42560299181778
H         6.09199471688948    3.62854253229392    0.99020422810487
C         3.78716347378945    1.12190371341645    0.41122091013468
H         4.25919259128754    0.80766049675255   -0.51854717273392
H         2.71018513751156    1.07578773059636    0.27373009496825
H         4.07043148519400    0.42229462325550    1.19524886160620
C         3.81567040817209    7.06834538920429    3.69673333237035
H         4.04987298139197    7.38376290314174    2.67397884303960
C         4.35427629044983    8.06636013395370    4.71050851279507
H         3.80573894145991    9.00411797015122    4.63714756894667
H         5.40907157402127    8.27528345713000    4.54476896859809
H         4.23043568557527    7.67212042365898    5.71777759395824
C         2.31012465685423    6.88571820421912    3.83754602429281
H         1.79441547923778    7.83089425422754    3.67855731568793
H         2.07025994484645    6.52195059058903    4.83613281460940
H         1.94764625551380    6.16502681120354    3.10681388636619
C         6.45347757439333    5.64569349232447    3.82055418576598
H         6.71162950282106    6.29217836299744    4.66716815364612
C         7.11759837647836    4.28951574478234    4.01230287687184
H         8.20156762121047    4.38664158168082    3.99430370536750
H         6.81707592471592    3.60032124307821    3.22428357029913
H         6.83161254650323    3.85415301190996    4.97038046837134
C         6.84193508661058    6.30465187603148    2.50511539817634
H         7.92434974528433    6.29708465061395    2.38760622249334
H         6.49956615649869    7.33677485865640    2.46354004027958
H         6.39869236679541    5.76379582698897    1.67089416959121
C         1.22072056492166   -1.05816538761925    8.25881285013139
H         1.01813621914561   -1.79036452297851    7.46961673121096
C         0.40011391526977    0.19705398793956    7.98773360005329
H        -0.65580540467210    0.01757074605471    8.18067110648004
H         0.51208595012333    0.50257573559915    6.94784575502968
H         0.73442086441325    1.02032875085827    8.61842687189216
C         0.94669468517796   -1.66705033018934    9.62530667896258
H        -0.12477410219848   -1.78436462213548    9.77953778995000
H         1.34404846803829   -1.02568877265483   10.40937574055730
H         1.41544597614965   -2.64490604484731    9.71677131736814
C         4.01571221496852   -2.16190381890808    8.28508006551443
H         3.85667279274450   -2.50108702416578    9.31513864706596
C         3.56743405143906   -3.22270555338462    7.29115733259096
H         4.23030164959888   -4.08494402015501    7.34408546317936
H         3.60385124085294   -2.82149535701752    6.27958101922527
H         2.55345130544112   -3.55977405764821    7.49704823296093
C         5.48085375276558   -1.79220917629097    8.09306772023666
H         6.11554666797124   -2.67000484450662    8.20048673798064
H         5.78261978803458   -1.05154456715600    8.83158795915274
H         5.63580160411649   -1.37080134710992    7.10005536617975
C         5.65453120245445    1.97333944699526    9.82616283090808
H         6.03694298179933    1.36671440658412    8.99631493738796
C         6.19612190551398    3.38585864213307    9.66706220178173
H         7.28168827136498    3.34942402354227    9.59465245746712
H         5.92729761300603    4.02452419872591   10.50403699951277
H         5.81310755958535    3.83500801507324    8.75154826901490
C         6.06536389532645    1.30789090865811   11.13321577238007
H         7.14203455600427    1.14521959497534   11.13549150254610
H         5.57063134551317    0.34280574295412   11.23712504990682
H         5.81554660303965    1.92491489810518   11.99371045300537
C         3.00479101079432    2.27618162933046   11.23182517937244
H         3.38681471416693    1.53028968287431   11.93775597932162
C         1.49458539750443    2.12608524954565   11.11940150052321
H         1.02753438940541    2.32021383585576   12.08377029435796
H         1.23161429184993    1.11849888034958   10.80901935294019
H         1.10089212329655    2.83570751532354   10.39379633991361
C         3.36410741838567    3.68367952350820   11.68773246361057
H         2.75977529353503    3.95460120461222   12.55259112110978
H         3.16176806108653    4.39643471920752   10.89052951944574
H         4.40945926067823    3.76211297897371   11.97357029357646

