37
CSD_code = VIKPIP | q = 0 | S = 0 | Stoichiometry = C12H12Cl4N4O4Pt | MND = 6
Pt        3.68927338376912    2.54994536164130    6.20158077235414
Cl        3.18396372030278    0.94178706330072    7.76350881594318
Cl        5.93527243502394    2.55410693608605    6.96002430371508
N         4.16413019095654    3.98574689482791    4.72086540954895
C         5.29449795539888    3.84412283682259    4.03450810794652
H         5.98586610701558    3.08945025005493    4.38497983538777
C         5.58780099625251    4.62384484421776    2.92954806531849
H         6.52648962958637    4.48365198799104    2.41838051501257
C         4.66913561058977    5.58675791422948    2.52239593211151
C         3.50503122338332    5.74238719183185    3.27133908961824
H         2.78697233608517    6.49759633666484    2.99365698474511
C         3.28743559683317    4.91885405203230    4.35917941613824
H         2.37833493054176    4.99153300334554    4.94087047166219
C         4.88185857851926    6.49400796160560    1.35855926102479
O         4.42501804751476    7.62236648669188    1.29265513441948
N         5.65719085075617    6.00330082774500    0.37347500193196
H         5.90841912876567    5.04105595367018    0.21651029545889
O         5.82650780777580    6.78588723905453   -0.76459246805434
H         5.36218447083020    7.62125447618175   -0.54419800538732
Cl        4.19319010826581    0.94336194371563    4.63784595381765
Cl        1.44359456044908    2.55374269287740    5.44300038042027
N         3.21500580768372    3.98501730089262    7.68300907635237
C         2.08509137158842    3.84298901811412    8.37003369064852
H         1.39400179127937    3.08773350121658    8.02028629320201
C         1.79202584143500    4.62284198855132    9.47497903708808
H         0.85371829859402    4.48223883662923    9.98673519078601
C         2.71036821499212    5.58643196636778    9.88129429752138
C         3.87397894373838    5.74243121553374    9.13167281247844
H         4.59175876254971    6.49812673900095    9.40874069822225
C         4.09143564393714    4.91867565998435    8.04397980048135
H         5.00022124323736    4.99164582757138    7.46182951564379
C         2.49793741061934    6.49405436173752   11.04491656798518
O         2.95455352443641    7.62253809344274   11.11019161763494
N         1.72300571372417    6.00357648950125   12.03043089061601
H         1.47177721722451    5.04139528313012   12.18777294109271
O         1.55391306083847    6.78650875350676   13.16829697045331
H         2.01793948550419    7.62193271023460   12.94743732666141

