92
CSD_code = VIKPUC | q = 0 | S = 0 | Stoichiometry = C44H30I2N5NiO9P | MND = 4
C        10.02429667351226    7.22026797840374   26.54306832340725
C         9.14380214082205    6.10414916236943   26.66866725153023
C         8.48171135564915    5.80284357884306   27.82138604279071
H         7.81350941463611    4.95652760465358   27.86427000736156
C         8.68056468877996    6.60096358950048   28.95575631658374
C         9.52006108518116    7.67708610127133   28.91220564159849
H         9.66963545379395    8.29494982453498   29.78609461064439
C        10.17860036978921    8.02684385441268   27.71787933336194
C        11.00025259920143    9.17766404996788   27.71722545473618
H        11.23882421475271    9.56584851708103   28.71213710273941
C        12.22744290280702   10.96383438588914   26.96988087890474
C        13.50818937266764   11.13128168802432   26.41602408650805
C        14.24902476409016   12.26560367114620   26.72762855849598
H        15.24154040830392   12.37575578723650   26.31894983646936
C        13.73890199252616   13.23523230507846   27.57119406252961
H        14.32723079085665   14.10546646384992   27.81450060264258
C        12.46292738531808   13.09743957653258   28.08396400353280
H        12.04274357135465   13.87632068510817   28.70173232506156
C        11.69289557107237   11.97719043717850   27.78740284941465
C        14.04830888669532   10.14204073307923   25.46821616544695
C        14.68968714009502   10.58480142784705   24.31300356477292
H        14.77747226909656   11.63903743378687   24.09756774838937
C        15.19704220669435    9.67266590859270   23.39695578542715
C        15.12864363253381    8.30536197877128   23.61653794744697
H        15.55179267064689    7.60026812103473   22.91568300478550
C        14.52547108374608    7.87161869127615   24.78656012740864
C        13.94919467328312    8.76336052095941   25.68972810003824
H        13.55920506263141    8.36311618215093   26.61578456137502
C        10.31454871507147   11.89394650560292   28.30185053092446
C         9.26257303545130   11.49468492913542   27.47681426905034
H         9.43163748317553   11.26248036068283   26.43397667443022
C         7.97817897166077   11.39050700110375   27.98814193199676
C         7.68773798679842   11.70385329002604   29.30821459680306
H         6.68416029728888   11.61611994152294   29.69787493202375
C         8.73440079724521   12.13219638722296   30.10856236305106
C        10.03269903820295   12.22339938126392   29.62555704456017
H        10.81728863280713   12.53575560901542   30.29917052131046
C        11.80749669364494    6.64313590163896   22.39249331510548
C        11.99012384221985    6.26144044154838   21.06454123187955
H        11.74944769880976    6.94315930330261   20.26122487859753
C        12.49154316270007    5.00751956635063   20.76818601741613
H        12.63214363521368    4.72165890710832   19.73606574327625
C        12.81162677493029    4.12155927352096   21.78417803629632
H        13.20570980055996    3.14550815783917   21.54589667549918
C        12.62483120265322    4.49201678770953   23.10399647507648
H        12.87027172221994    3.80754509670189   23.90129098963300
C        12.12800896075606    5.74718116799114   23.40501110879618
H        11.97004401974350    6.03297612356298   24.43267888818821
C         9.28914092306485    7.96055173967226   22.67514966609109
C         8.74971647012875    7.10642623011246   21.71977190197804
H         9.39613664477086    6.59810793674607   21.01935234795619
C         7.38349749890993    6.89515988369511   21.68339189532369
H         6.96590996837953    6.22531067163123   20.94658384912170
C         6.55257535278630    7.52885132402511   22.59400756117081
H         5.48806458215258    7.35079201544366   22.56574096604373
C         7.08643373743146    8.38238198799747   23.54539151014938
H         6.44914403556085    8.88069397720993   24.25916688898651
C         8.45133190136412    8.59632579388883   23.58479286365763
H         8.87567841501361    9.25885397038506   24.34116278511837
C        11.45869287901741    9.23820373397630   21.32111033957619
C        12.77490030556939    9.27915678558962   20.86881413098760
H        13.52055999997567    8.67089793356626   21.36247744236892
C        13.12006153733449   10.05876931319488   19.78207961119902
H        14.14240150228072   10.07484584186820   19.43508333411451
C        12.15039915936649   10.81473911112991   19.14139456879155
H        12.41755429193698   11.42655517032969   18.29316981008175
C        10.49282873383810   10.00235577130865   20.67823784133984
H         9.46956174399901    9.97868687538199   21.02656644960870
C        10.84017494041274   10.78260830423492   19.58871958181354
H        10.08412177141957   11.36920060317351   19.08798865942124
C        11.39650702310952   10.88294843992817   23.97036187348839
H        12.20730124937132   10.98926642259550   23.24585447431006
H        11.50155899953739   11.68392244070347   24.70800002108138
H        10.45642713242722   11.04570716522182   23.42776717377804
N        11.48983730013014    9.80627523711856   26.68964089414624
N        15.81518151277723   10.16830059639860   22.18572716667966
N        14.54444771795778    6.46161870005284   25.10985398146859
N         6.91311339594711   10.92769623858640   27.12047330369412
N         8.47203864651725   12.48694013022953   31.49362381843371
O        10.63982980563672    7.42682741159471   25.46061364695072
O        15.96376897850250   11.36555040391660   22.08593589381832
O        16.13475497209192    9.35405860066907   21.34965014155713
O        14.00208057106440    6.11796173409518   26.13679714221701
O        15.13081144926478    5.72526731079757   24.34979645968638
O         7.22575430560647   10.55939115524365   26.01006944071016
O         5.78984216965295   10.93202809775339   27.56252232213618
O         9.41804947169764   12.84107222968535   32.15918196535271
O         7.33112106408719   12.40885136856555   31.87896110034788
P        11.07874640876482    8.26237116406376   22.81020170094944
Ni       11.27802180789099    9.13723614594396   24.80298560560491
I         8.88602466288151    4.93828116829448   24.93190722665785
I         7.65155010871643    6.12926847254666   30.74429012466800

