57
CSD_code = VIKQIQ | q = 0 | S = 0 | Stoichiometry = C26H24N2O2OsP2 | MND = 4
Os        3.99123276353946   11.50458585588551    2.37376757422532
P         4.83031488868409    9.48584187570314    1.45248735657709
P         2.77471314252647    9.99870307573901    3.74635703551974
N         3.00675237863349   12.17607491438990    1.11988089014444
N         5.12283217406998   12.26184939708901    3.44048630244148
O         2.37656724415922   12.70720483801125    0.25379850807186
O         5.86558591634428   12.85924546040019    4.16230707314097
C         4.29162795303431    8.01530981873104    2.47931963939857
H         4.32638047514511    7.09551159699221    1.88756282359056
H         5.04386018438782    7.93850153772114    3.27333303248532
C         2.91090789638025    8.25486479302679    3.08193159122200
H         2.66853033040175    7.52307963039755    3.85863336018090
H         2.13987604487119    8.19231543246821    2.30477841853529
C         4.28136539074578    9.08953332535520   -0.23889131564517
C         4.85015827421103    9.87001852071490   -1.24454171891524
H         5.58348541688633   10.61950310403315   -0.97265065045610
C         4.47647801504170    9.69367255545764   -2.56116202799910
H         4.92268109814959   10.29983707751635   -3.33541293188363
C         3.52004681675682    8.74333828071775   -2.88601614040907
H         3.22159770002362    8.60623523095149   -3.91463274558170
C         2.93958424021438    7.97807981649411   -1.88969033098321
H         2.18665860473112    7.24484014074184   -2.14076352881330
C         3.31305945377725    8.14967225691744   -0.56730365302621
H         2.84184083020122    7.54978242800930    0.19784154133849
C         6.60756592997930    9.10441712428291    1.29956144706964
C         7.53035204204312    9.94528994434214    1.90792326246099
H         7.17510073561855   10.81758805457016    2.44290626064890
C         8.88364354146598    9.67051475806904    1.82062331244761
H         9.59847381622115   10.32753047077894    2.29321486677496
C         9.31748572288545    8.55600025575831    1.12244461256063
H        10.37349697600478    8.34207234761060    1.04876662910507
C         8.39893575450304    7.71603850837554    0.51123251789850
H         8.74032003959372    6.84975448993264   -0.03658032908414
C         7.04621895721936    7.98625466500032    0.59624806668908
H         6.32818919051872    7.33969690245282    0.10999038928105
C         3.31799019034667    9.87662206447886    5.48133307012065
C         3.99609390729006    8.80239295500544    6.04249170994025
H         4.22240623738452    7.92254810484980    5.45774324606136
C         4.39340114388995    8.85519185846967    7.36818590767599
H         4.91995730349219    8.01670542463352    7.80099245523741
C         4.12437230599229    9.97462509546290    8.13604962966914
H         4.43983621563803   10.00931479352776    9.16814662352524
C         3.45909511669665   11.05525822031294    7.57631380050023
H         3.25756573622751   11.93419127507483    8.17024598409617
C         3.06384429580729   11.00847564140611    6.25510475352232
H         2.55892962791651   11.85073413907742    5.79736528860131
C         0.96829599945571   10.08082268779424    3.98754571164242
C         0.22125703967392   10.91909062889320    3.16993011729620
H         0.73058348248743   11.51981337640671    2.42624462069559
C        -1.15292463946800   10.98694616074782    3.31512935036767
H        -1.73051904402655   11.64047019830021    2.67851405013862
C        -1.78305332970690   10.22022400043116    4.28114033550092
H        -2.85506162440240   10.27535175835271    4.39987502582470
C        -1.03980408088514    9.38574197932898    5.10194829265320
H        -1.53326283338471    8.79238544761132    5.85792723183351
C         0.33309783379817    9.31329026525432    4.95930755613106
H         0.91647917680780    8.67164543993634    5.60581409995845

