71
CSD_code = VIKRAJ | q = 0 | S = 0 | Stoichiometry = C30H28BN7NiOS3 | MND = 4
Ni        3.82119763480064    7.45681004116269    0.73173326541509
O         4.76723348894936    8.67466784057575   -1.02454959753749
S         2.56559463490631    5.85768053391169   -0.36467662039277
S         4.86476056361093    6.58176734095064    2.78989142998041
S         2.57357369127148    9.33152237643471    1.61205939342672
N         5.10147596352137    7.95666157274020   -0.14977699469317
N         0.50433966056741    7.57143267669295   -0.47669291308178
N         0.81761967878804    6.80208129494616    1.55633075447804
N         4.24373875269453    4.06892772198885    2.06367991339343
N         2.47090494040408    5.21862814843177    2.66025303437943
N         3.18766726811119    9.31463897741475    4.21968890472688
N         2.07015841654437    7.52147483718965    3.62836204184211
B         1.42482495725449    6.32343168877972    2.89751878357964
H         0.54737058375382    5.88772212823323    3.57582397310860
C         0.97240164298998    9.28376169165119   -2.10741550523012
H         0.92320390611834   10.01581458296637   -1.31498541839933
C         1.26689011547127    9.65864297230699   -3.40247365230217
H         1.43183227634824   10.70139921254944   -3.63012599477633
C         1.37357648841311    8.71033236328861   -4.41513591838201
C         1.17391831619165    7.37308705719762   -4.10075531153358
H         1.25776922152103    6.62271996755390   -4.87304004288704
C         0.87356580883669    6.98117868106758   -2.80862364171065
H         0.72706353983890    5.93916960426938   -2.57074947409456
C         0.77364841091994    7.94074190012873   -1.81332950425156
C         1.71112941065476    9.13799897793661   -5.81012700710961
H         1.00399475124563    9.88857865958451   -6.15999306665208
H         1.69189422802063    8.29288538952552   -6.49291701012510
H         2.70568552204549    9.58120892021300   -5.83386738314844
C         1.30130423823055    6.79117988634481    0.29714322652404
C        -0.46949352652513    8.11451406262271    0.31999263683458
H        -1.20648668947530    8.78433382195526   -0.07116724205705
C        -0.27780277730749    7.62737365357209    1.56493982287556
H        -0.82037716723338    7.80729979301996    2.46933077665626
C         6.15839712690123    2.58936628346347    2.07895650344492
H         5.64451064534672    1.94331103587608    2.77564920171894
C         7.42930295694245    2.27244107503430    1.63637584708853
H         7.90310455403938    1.36767099000706    1.98898416745697
C         8.10522957857826    3.10275650997206    0.75133823673935
C         7.47339872573631    4.25956075333922    0.30713947527586
H         7.98061615751647    4.91172423809065   -0.38782193208790
C         6.20306394747528    4.58642557883089    0.73601599830127
H         5.71261389822919    5.48555368013986    0.37441203465499
C         5.54736982840130    3.75253365176735    1.63246310555643
C         9.49394964818228    2.77464927056043    0.29660032347741
H         9.63192541171254    3.04822511473879   -0.74680938814494
H         9.70418065985286    1.71485462165422    0.41663767800730
H        10.21798522758200    3.33489368375155    0.88812706810748
C         3.80211543563710    5.29662218879779    2.44288355833031
C         3.17078331283167    3.21427898269239    2.03269969345490
H         3.27122418067006    2.19387930871628    1.72726231500192
C         2.08509512522389    3.92908926918014    2.39606146555908
H         1.05976001827826    3.63564447271036    2.48073940231327
C         5.22009763466436   10.51881032950010    4.69896931469005
H         5.62876746824142    9.61503849025419    5.12547785542043
C         5.96741448713886   11.67935708262781    4.65506566149572
H         6.96485172537688   11.68411732145251    5.06974347831275
C         5.45911934318182   12.83570947965296    4.07444972326421
C         4.17794085432530   12.80304564649920    3.53806700413568
H         3.76862196931648   13.69182798076773    3.08078573859759
C         3.41486540507904   11.65137637932157    3.58052232692089
H         2.42071745265118   11.63732824474268    3.16341190677728
C         3.93952808097270   10.50545383461697    4.16130111673162
C         6.28651646634781   14.08205564708414    4.00356886309079
H         5.65615504844674   14.96810814011983    4.01148497290048
H         6.86503643728931   14.08841861404977    3.07936885254024
H         6.98347423420729   14.13412240773089    4.83669337820855
C         2.60894411109906    8.67153119693766    3.17427190982995
C         3.04150467299072    8.53485275202163    5.33878711922525
H         3.42687410206490    8.83700087703773    6.29000325939601
C         2.34589515623608    7.43931187434564    4.96879833968003
H         2.02597095966548    6.59618461467690    5.54406876563813

