71
CSD_code = VIKXUJ | q = 0 | S = 0 | Stoichiometry = C25H41NSi3Zr | MND = 13
C         4.04274454362440    4.40760111679531    4.41016849427684
C         4.43395951285923    4.49340616379498    5.64073517850011
C         7.37731456803517    4.48317245985466    6.26435764018266
C         2.78354297563596    3.77214994893742    1.66596538765069
H         3.72018733397208    4.13626216465295    1.24898778662931
H         1.99032278079230    4.04784221235010    0.97712455217872
H         2.82866200819821    2.68689630619535    1.68723972647030
C         1.00797566787174    3.52215425304423    4.19517347561487
H         0.70917061977933    3.96236483594787    5.14058240172104
H         1.28803863320230    2.49120689412927    4.38864846226778
H         0.13955034846201    3.51115887029007    3.54305666279443
C         1.95340826096072    6.33176241519891    3.22963371983560
H         2.72438095010217    6.90592154146900    2.72502021924519
H         1.78799676813995    6.78805895688532    4.20069340109706
H         1.03769048498223    6.43379315620559    2.65518068173142
C         2.16148049857012    4.82844619131082    7.93214901716598
H         1.65095376630621    3.89902220657831    7.69961966775181
H         1.65135018372422    5.62466813571900    7.39883694575206
H         2.04014324699742    5.01366118761837    8.99590147779182
C         4.81966828284075    3.27911260470498    8.37221622301148
H         4.17465302974955    2.40602626094810    8.36875033633835
H         5.02591776961082    3.52518481507425    9.40983141882076
H         5.75667690288460    2.99635027188675    7.89415936822713
C         4.84900142400519    6.39920491954339    7.90785131737950
H         5.82065814264446    6.48380021191077    7.42241919612536
H         4.99538426494106    6.49376458957471    8.97978047284277
H         4.24820567681135    7.24447404909078    7.58614499469934
C         9.03304232134609    4.47394751312866    8.21002884172346
C         8.32259754788560    5.39419812157458    9.20986316163028
H         7.30210153580690    5.05410742636477    9.36999894315384
H         8.29058438789045    6.41314665103664    8.82957846518203
H         8.85285263260632    5.39129067703252   10.15902596366370
C         9.06762075822028    3.03266659887320    8.73108900458592
H         8.05825113862056    2.68103199717532    8.93448338130977
H         9.64727812800731    2.98470410081070    9.64933782742751
H         9.52278904773917    2.37338834020539    7.99448268241419
C        10.45176414267445    4.97671707922128    7.92031195085165
H        10.41863720242153    5.98268496969396    7.50698920823825
H        10.94524935261660    4.32424614653726    7.20280486170696
H        11.03684719289317    4.99450920361117    8.83607765460797
C         7.32184713704379    2.74063202137054    2.85665905787036
C         7.95051944973022    2.50038895713296    4.10758749598078
H         9.00641523566682    2.64418245660857    4.31553535163087
C         7.02104404535274    1.88302273469812    4.96740307873746
H         7.23556373509438    1.46213312309553    5.94262814354805
C         5.80074039023955    1.76189902812126    4.27493414138132
H         4.91574244500337    1.25486582057428    4.63994134045778
C         5.97173317002468    2.30667358103761    2.98934490446504
H         5.25129962470010    2.25194513710649    2.18229690286769
C         7.38641460325217    5.54753022967499    2.56494110854818
C         8.03623980502246    6.00328390681549    3.74312279258092
H         9.08483141073151    5.85141633711264    3.98032752667046
C         7.14620416928242    6.82899199507307    4.45707799706921
H         7.39056667636089    7.42607815136205    5.32777235440729
C         5.92843550388631    6.87008857763110    3.75192699049614
H         5.07457892138175    7.48568170481695    4.00585314940186
C         6.06064956538432    6.06714630090569    2.60383046297045
H         5.33562630133924    5.99345976507820    1.80062327196268
C         7.01110791668766    3.86121536804982   -0.07710060328632
H         5.93275750598707    3.87152356029364    0.04352933137715
H         7.27899041072109    2.93559112037112   -0.57460122222295
H         7.27914057809564    4.67983943829633   -0.73608641576806
C         9.80962280903762    3.94892247098510    1.31407511205329
H        10.12587966788385    4.74464616800719    0.64840107693751
H        10.09922230798870    3.00566636396031    0.86399956399913
H        10.36108621111026    4.05590417735791    2.24199771822365
N         8.31613852346525    4.47480409259274    6.98840044837533
Si        2.46391239632535    4.49341870882053    3.41650264113552
Si        4.00908079527068    4.74111059910050    7.42590564727457
Si        7.92066849259886    4.01518215526861    1.59599288001218
Zr        6.27058616075280    4.34145038340159    4.35627757830560

