53
CSD_code = VIKYOE | q = 1 | S = 0 | Stoichiometry = C19H29ClCrNS2(1+) | MND = 4
Cr        5.49315171950474    9.70625319122768    5.97682773741087
Cl        6.70341078712953   11.32509446945164    5.80635241274276
N         4.96530065754059    7.91967701703318    5.66907794671901
S         6.80974799120330    8.62047566279031    7.73811770002903
S         3.80859763232344   10.21097032506418    4.34172734912268
C         7.12092629987190    7.27804353498167    6.49277787547038
H         7.75113564217167    7.73281055616497    5.72518017615336
H         7.63081832531933    6.44109840108023    6.96583951200373
C         5.79430108647177    6.88156679058075    5.95899435758204
C         5.41272267865395    5.55990186985432    5.81792155043707
H         6.10492829692949    4.77556775552476    6.07647112897316
C         4.15117027816822    5.25869046383536    5.32573596035250
H         3.83855321797975    4.23839013412576    5.18445316849029
C         3.29917316403064    6.31443613577499    5.01735511126699
H         2.30716052183787    6.12780487337827    4.63843106191513
C         3.72246778799886    7.61399811313640    5.21004592548211
C         2.82194475039188    8.77454579775309    4.90424596576344
H         2.29360788089249    9.12075243477073    5.79824505269095
H         2.08395347338843    8.52193548387688    4.14038725175096
C         8.47790132487977    9.41229153164040    7.86097791392819
H         8.75419907166287    9.70794273653737    6.84454364687983
C         9.48869199259675    8.43983903060304    8.44757803897713
H         9.59989513901826    7.56199906943073    7.80920777969436
H         9.14257015813180    8.10923320564219    9.42863009448457
C        10.84262699039689    9.13854523207873    8.58928300046136
H        11.56025660207223    8.44271136893625    9.02452374661538
H        11.20838306776187    9.42248572265730    7.60023024908819
C        10.72116160627757   10.38167921582924    9.46341223659065
H        10.42286932554694   10.09085239489117   10.47235095545551
H        11.68825695956022   10.87990503351732    9.53150033697614
C         9.68588973806742   11.33870201252570    8.88230673544593
H        10.01332623690657   11.68298952631452    7.89921989737267
H         9.57894980513279   12.21232283095443    9.52529947567164
C         8.33356929312367   10.63924599911702    8.74988623964855
H         7.98476855985166   10.32914416760116    9.73728020175336
H         7.59649995859190   11.32486444353501    8.32477192627753
C         4.48442418079998    9.52164568454071    2.76095085349352
H         4.47525854772423    8.43408090516792    2.87764994210138
C         3.59809910010425    9.94329844906915    1.59870524534910
H         3.57062875042216   11.03313492774464    1.54756961121133
H         2.57703431325287    9.58734697188770    1.74841879218156
C         4.16210551392620    9.38238681293026    0.29332685450646
H         3.53490448208402    9.70361879108318   -0.53803528345546
H         4.14105639897541    8.29073447728414    0.32632667636014
C         5.59518587555945    9.85981402588918    0.08332046767709
H         5.99432251864828    9.43537275912034   -0.83797243252990
H         5.60550629040081   10.94646776038139   -0.01711879633593
C         6.47305144918243    9.44982185897847    1.26215684776702
H         6.51500723381166    8.35992404130819    1.32389536502689
H         7.48898151254766    9.81732540252286    1.11718622382143
C         5.91027752760670   10.01252639510395    2.56767552719325
H         6.53092655129167    9.70069934563529    3.41731275802747
H         5.91354173226047   11.10403485913637    2.52414162792567

