24
CSD_code = VILCAV | q = 0 | S = 0 | Stoichiometry = C10H9MnN2O2 | MND = 8
Mn        4.27771356926731    4.78238974513290    2.90703910664609
C         4.75251064584552    6.31767752432203    2.17393910492262
O         5.05123199065835    7.31834521331195    1.67037866247308
C         5.94557529047452    4.20804326772747    2.83754504907602
O         7.03466541561170    3.81471202867175    2.77226423769074
N         4.48209856802307    5.51334272950690    4.82465253882763
N         5.57852100441181    6.17753424084924    5.23322982119145
H         6.34738922919025    6.33804844779708    4.59293022265657
C         5.47966227996111    6.56141418210835    6.51885748352580
H         6.25991828607774    7.10202141810918    7.01396855849947
C         4.25896813884779    6.12584671851259    6.97229744060303
H         3.83805053325557    6.25021832499629    7.94770909579072
C         3.67468030836653    5.47788770489597    5.87960567689718
H         2.71222137041817    5.00660613893528    5.84802808923850
C         2.43825531044595    4.70301559487995    1.72025366599803
H         1.99884066064039    5.44339952036813    1.06573557986504
C         3.31219790757378    3.65964126847245    1.31850955959248
H         3.60815681015324    3.44419579620535    0.29981632130231
C         3.48651783226512    2.79233993739675    2.42882753995077
H         3.98067974904847    1.83076648618254    2.40545061872230
C         2.77543967810065    3.32866670918711    3.51422670339765
H         2.61775273038131    2.83235440913838    4.46342104141034
C         2.12903460097390    4.51258919529994    3.07766524585104
H         1.38701809000773    5.07204339799196    3.63284863587196

