62
CSD_code = VILDIF | q = 0 | S = 0 | Stoichiometry = C17H41NNiP2 | MND = 4
Ni        5.03867423277628    9.82911930496470    3.81452381236817
P         3.17182928823179   10.04736588643486    2.56281865922415
P         6.05578953623514   11.61689555989302    2.85945959624096
N         3.81337155214482   12.57794753848932    1.61261651122141
C         2.96840845565203   11.43397230911952    1.33203659442808
H         3.16943318185338   11.03767978187638    0.31805949581588
H         1.92425348616783   11.76020575482977    1.36728730873982
C         5.21263697907854   12.28788914109987    1.33925825900718
H         5.72069735037906   13.20758136223907    1.03670375420050
H         5.31025073494970   11.55793025427722    0.51867021748250
C         1.89351660878320   10.59055313136315    3.80616398416898
H         1.01763333134084   11.00383915252468    3.28975429542325
C         1.46718748357142    9.44252165317124    4.71191321184016
H         0.91854101034229    8.67900719429296    4.16471920877015
H         0.82631165262704    9.81442875693280    5.51068070591865
H         2.34862995232971    8.98857173128486    5.16098603922617
C         2.57582054002781   11.68245182436417    4.62486171902722
H         3.48545578285693   11.26271806403639    5.07179625905128
H         1.92989389336043   12.04253250634364    5.42496099057256
H         2.85521972682001   12.52002883973879    3.98831535732316
C         2.31707919374290    8.67433898655904    1.62350987887244
H         2.16800733991722    7.88761777783578    2.37323523938508
C         3.27663316903379    8.13131924641190    0.56514080699139
H         3.41583958177609    8.84775521309198   -0.24318448082700
H         2.88874367719401    7.21040610196053    0.13200602634433
H         4.24904356864083    7.92074424626482    1.00872334096197
C         0.96406285378695    9.02249901079607    1.01279664436844
H         0.27964521868735    9.41619182893077    1.76025568395995
H         0.51619962368664    8.12502586103818    0.58682526764563
H         1.06601806458524    9.75345977795677    0.21391547813610
C         6.72595564706172   13.22702744303364    3.54002978183984
H         7.08669250405475   13.82756372538049    2.69489441057650
C         7.87159684959043   13.01946109710053    4.52396840521712
H         7.56512424494874   12.36496572012880    5.33547994514119
H         8.16874227423005   13.97668111408145    4.95187327786019
H         8.74107095344397   12.58368992204151    4.03743281031135
C         5.57228897533256   13.96462885503044    4.21393976570807
H         4.73526010822629   14.07687930651225    3.52817049019053
H         5.88800032471354   14.95323010217128    4.54582487608531
H         5.22962836685569   13.40487604018591    5.08195374884142
C         7.56488315813006   10.83801448646775    2.07802580886055
H         8.24388468716139   10.64854856036443    2.91783617483803
C         7.13521177063140    9.48035934871714    1.52341473398388
H         6.54031561460882    8.95307484787404    2.28337803962805
H         8.00001955589636    8.86702232972542    1.27476313271288
H         6.53051690309339    9.59463882785832    0.62463315531353
C         8.29837081389854   11.66900184607520    1.03112448245848
H         7.67667085319534   11.84393430469350    0.15582920835735
H         9.18979316823730   11.13433077369321    0.70403474009319
H         8.61287547764021   12.63000894818993    1.43160850310666
C         3.34736541569897   13.75026409754609    0.89685323310089
H         3.36436268633474   13.61876791069698   -0.19690082940440
H         3.97197528634381   14.60592672652624    1.15261291710817
H         2.32433993940443   13.97391138860375    1.20085203220226
C         4.82757912810976    7.91704722609944    4.26513213882947
H         5.78628195820536    7.39049328919580    4.32564161562383
H         4.26390017269642    7.48131655600217    3.43032946698357
H         4.27984005040606    7.68965274745577    5.18253851180105
C         6.15591893926118    9.82948678905714    5.41916154965551
H         5.88235289695130   10.79691930969202    5.86818348623131
H         7.21554230685927    9.86472947942404    5.14560450535098
H         6.04671189823324    9.06844908227733    6.19176601543171

