89
CSD_code = VILFOM | q = 0 | S = 0 | Stoichiometry = C42H42Cl2P2Pd | MND = 4
Pd        0.00022142322696    0.00131070013725    0.00128508265639
Cl        0.21403380594922   -0.34104172348804    2.27084146314260
P         2.26884286822370   -0.06811486757679   -0.09151913634978
C         3.03980342117879    1.06812701967336    1.10820841417707
C         2.63949925571722    2.41015053891142    1.16837593900639
C         1.55908958240395    2.96645921350920    0.26923715773463
H         1.34233005046490    2.23671790551228   -0.53243052879842
C         0.28317631619650    3.17433363077945    1.09780977037276
H         0.50083777427233    3.75343045160183    1.99362872698612
H        -0.12422095065721    2.20304062960751    1.40655272295370
H        -0.46856848821297    3.70449075452858    0.51608261726953
C         1.97705540049150    4.27254973047012   -0.40857106929182
H         2.06031119033390    5.08289869262688    0.31172041907618
H         1.23206474696296    4.55417400685009   -1.14921733951789
H         2.93254749779679    4.15865139287059   -0.91547814000735
C         3.23385366407679    3.23233857273714    2.11842955231670
H         2.93407497851642    4.26748499023137    2.18678692764218
C         4.19845015690462    2.75501162811712    2.98639869095063
H         4.64345099732808    3.41782322472758    3.71413579818360
C         4.58169703719969    1.42714100528355    2.92708526477025
H         5.32622599338852    1.04114340754342    3.60752300126024
C         3.99994643059643    0.58933226018751    1.99491399379979
H         4.28914936570432   -0.45069382104559    1.96094670574416
C         3.10209903152266    0.32870822714206   -1.66178869723262
C         3.96263084753082    1.40751935436093   -1.81886584177665
H         4.18506918843418    2.04814249478655   -0.97676600654803
C         4.54637516679467    1.65178552728459   -3.04999633238910
H         5.21619270667608    2.49165204763147   -3.16781677206826
C         4.27401068926239    0.82570551656231   -4.12685830717320
H         4.72659585503912    1.02393076363903   -5.08739964338382
C         3.42172212297910   -0.25647174071914   -3.97203863012184
H         3.20811820696093   -0.90248508153943   -4.81070186304008
C         2.83852244436522   -0.50516329586882   -2.74550363262411
H         2.17023471501473   -1.34668760832801   -2.61750372304710
C         3.01994366694543   -1.68891348611400    0.27067295080312
C         4.30626607295932   -1.99669791249669   -0.16924820902172
H         4.87450363667364   -1.26548647688002   -0.72792187267914
C         4.85609525273451   -3.23350266716392    0.11142680527798
H         5.85429640040721   -3.46575480552778   -0.23041435549266
C         4.13248070278073   -4.17221775881913    0.83036862049174
H         4.56695286103386   -5.13703170308663    1.04739229440222
C         2.85515981450723   -3.87016500229535    1.27076168071668
H         2.29075436623652   -4.59877209990635    1.83460235734130
C         2.29754218591422   -2.63462031193606    0.99029418900810
H         1.30467928135175   -2.38685723782864    1.34544482963030
Cl       -0.21464491968084    0.34183379018477   -2.26959766037802
P        -2.26875195218947    0.06805852177826    0.09123613329036
C        -3.03995026343217   -1.06824323962989   -1.10821918686524
C        -2.63957098167898   -2.41023095746060   -1.16835402149048
C        -1.55921227349943   -2.96656351272562   -0.26913368843744
H        -1.34261339841374   -2.23698951051474    0.53274500777713
C        -0.28319500970357   -3.17440015481588   -1.09762941892544
H        -0.50080493458092   -3.75347737297925   -1.99348349435688
H         0.12427700099095   -2.20309929923592   -1.40636419167544
H         0.46849757902906   -3.70460594544483   -0.51586803908277
C        -1.97717478390589   -4.27267284889257    0.40860527031199
H        -2.06039941000364   -5.08297921117399   -0.31175738859214
H        -1.23215031768808   -4.55431837487088    1.14923714675995
H        -2.93267210065895   -4.15882871710478    0.91552867281089
C        -3.23378022717127   -3.23240186737491   -2.11850778217476
H        -2.93399544302571   -4.26754979551543   -2.18679713701737
C        -4.19829165183797   -2.75507355933911   -2.98657318976060
H        -4.64326372349273   -3.41790959525193   -3.71429025826855
C        -4.58158347557502   -1.42721300210550   -2.92727287674602
H        -5.32610480093849   -1.04123753723917   -3.60772191487748
C        -3.99999206674646   -0.58942071201577   -1.99499640761227
H        -4.28918275138638    0.45061374072191   -1.96105656854353
C        -3.10188293638832   -0.32875759496465    1.66164396965586
C        -3.96243313987753   -1.40757662324804    1.81874354555123
H        -4.18483189858161   -2.04824805277205    0.97667592926640
C        -4.54628670333665   -1.65178925073613    3.04985096636126
H        -5.21605408751412   -2.49169811541491    3.16768561348813
C        -4.27406548227110   -0.82564188482386    4.12669527715103
H        -4.72672565910518   -1.02383854289961    5.08721398634598
C        -3.42183649939804    0.25658052636915    3.97186977783142
H        -3.20834931579558    0.90265150645602    4.81052578443648
C        -2.83851422651580    0.50521707995728    2.74536139992566
H        -2.17028621539993    1.34678331826020    2.61738563112455
C        -3.01995550366671    1.68885570002051   -0.27079564144578
C        -4.30617927501432    1.99676268858480    0.16935369983467
H        -4.87440814248832    1.26560233039694    0.72809800265777
C        -4.85598477977751    3.23357884770910   -0.11132536333247
H        -5.85413788950328    3.46590896966763    0.23061571417908
C        -4.13242180531839    4.17220114176582   -0.83042905451351
H        -4.56687800811559    5.13702514452448   -1.04744006672173
C        -2.85517548726319    3.87004380570660   -1.27100552590594
H        -2.29079974135100    4.59859483369186   -1.83493344836892
C        -2.29759792590544    2.63446821480632   -0.99058445936128
H        -1.30475310598981    2.38660903127324   -1.34582061945116

