88
CSD_code = VILFAZ | q = 0 | S = 0 | Stoichiometry = C31H53NNiP2 | MND = 4
Ni        1.55252470123571    7.82589802367056   14.03347434703811
P         3.45732202051211    6.54063177382092   14.34013520944533
P         0.77831033253898    7.39131481480540   16.12109418436043
N         3.19231086017706    6.55259878096752   17.13703846351549
C         3.85970080958551    5.87480747662223   16.04261357465421
H         3.60401470683959    4.80141692641502   16.03680480170480
H         4.93907573632232    5.97184321419310   16.17537332262981
C         1.77891716771625    6.22142613079640   17.17307365205979
H         1.40536804258836    6.28515566905312   18.19805983960477
H         1.60097460219665    5.19334361627496   16.82053868144406
C         4.89050145659634    7.72617615820339   14.16761998739933
H         5.80587455402186    7.23458520475548   14.51962794507731
C         5.07712365620440    8.19851798380253   12.73107607380324
H         5.28526992026908    7.37045642107344   12.05648718921139
H         5.90974883203822    8.89913075276329   12.67490135284361
H         4.17695207125376    8.70813750282281   12.39235683757100
C         4.56792700753511    8.91346522564329   15.06659977684550
H         3.63842198728709    9.36557778437224   14.71404914864459
H         5.35904353484760    9.66160907453719   15.03225203808696
H         4.42627782285562    8.59011677895977   16.09490026734964
C         4.02102278189751    5.06210916044801   13.33030977451277
H         3.88939839821889    5.38526642986100   12.29003642408967
C         3.07983335219437    3.88111879593628   13.58100750883157
H         3.35759220300158    3.34496449726336   14.48690184580746
H         3.12707994047453    3.17274724066878   12.75503804093277
H         2.04990270630596    4.22032583869099   13.68318544483286
C         5.47254293857793    4.62891334123343   13.51231183739448
H         6.16706208798451    5.41411991181096   13.22647346376374
H         5.66972245983169    3.76315374545951   12.88039678341133
H         5.67402693538527    4.34119830082620   14.54179929396500
C         0.38768651420113    8.74995314255008   17.35285132226345
H        -0.19776902472169    9.47818409501363   16.77792520400616
C         1.69314397017820    9.42270073533924   17.77239838224218
H         2.26489293643047    8.77435113400142   18.43046647957236
H         1.49007045405317   10.35435619034171   18.29901212631726
H         2.30776034223346    9.64436443839225   16.90312748053156
C        -0.42202611072081    8.35368905950758   18.58352537594298
H        -1.40477129711862    7.97247933165974   18.31995655083628
H        -0.56293132906352    9.23113635736125   19.21401087239317
H         0.09193431770693    7.60231948137776   19.17972936538492
C        -0.81327321608773    6.41307006267779   16.06928361803183
H        -1.06247486485034    6.08108311930760   17.08461603812479
C        -1.93375827101008    7.28033724390509   15.50578176609716
H        -2.10766176653927    8.16527698576768   16.11389925647740
H        -2.86203989391049    6.71256023084406   15.45423690940291
H        -1.67187895153410    7.59396770198492   14.49677181310698
C        -0.61915415613853    5.19736920486507   15.16645067477719
H        -0.18794279820257    5.51220077348106   14.21619956867170
H        -1.57601566986636    4.72142753810081   14.95734790088099
H         0.03267390388130    4.45083851633005   15.61625915738233
C         3.85853299800799    6.37376441113963   18.42996087441020
H         3.17717325515509    6.79785328044008   19.17840756196747
C         5.15530019581062    7.18006560892518   18.50780561461290
H         5.92003352716534    6.78353006885142   17.84488204695812
H         5.54113190124768    7.14494955063604   19.52375857426188
H         4.96998352330547    8.21810282154981   18.24497695455410
C         4.11390360711551    4.90818083442612   18.81055211758008
H         3.20057634105587    4.32289545675327   18.72089511581598
H         4.45523653785851    4.85088331384724   19.84104429669394
H         4.87705828740018    4.46511748805602   18.17501582983549
C         0.81787417868823    9.70913528418675   13.98065847197123
H        -0.23063420558865    9.61558739119533   14.28855419936449
H         1.42161951013213   10.05253292779785   14.83719374515365
C         0.92929500295235   10.68338761258818   12.88746807627569
C        -0.18597957919934   11.05372088035287   12.12871148213234
H        -1.14792304301816   10.61252107781796   12.35199727210388
C        -0.08761963219938   11.98238684146368   11.11177772126542
H        -0.96715444256872   12.25026889519815   10.54266491057499
C         1.12984347868961   12.57537611927537   10.82166789391697
H         1.20769376605719   13.30114923743050   10.02526505758382
C         2.24613510383309   12.23102239775361   11.56805202505746
H         3.19977774206111   12.69372615881931   11.35402446888259
C         2.14718493479112   11.30254937701919   12.58321156228703
H         3.02651869875109   11.04029433918658   13.15454763940835
C         1.49557866247034    7.80462783195222   12.04890323013199
H         1.30447079358483    8.73319482563277   11.51176813447375
H         2.42376688955298    7.35642834936089   11.67874192230088
C         0.37176083714831    6.86416895101711   11.91874729255332
C        -0.96124936463075    7.30568592608831   11.94951388002421
H        -1.15163516481890    8.36087177353363   12.07322538613564
C        -2.01177790577594    6.42357442133463   11.80753080266653
H        -3.02899221645012    6.78925297126107   11.83827632644622
C        -1.77307700979941    5.07022098031035   11.61739144162211
H        -2.59737178513434    4.38042292729815   11.50868613752119
C        -0.46654522804567    4.61634173569757   11.54506177043963
H        -0.26897007676461    3.56770773317548   11.36843136852365
C         0.58765198024974    5.49790890386235   11.68635936149956
H         1.60101918549827    5.13819937618235   11.58668245972046

