26
CSD_code = VILFUR | q = 0 | S = 0 | Stoichiometry = C9H9CrNO6 | MND = 6
Cr        0.39301078709976    1.73789385869104    4.07531837125711
N         1.69822111371482    0.59034533904741    2.56026276839132
C        -0.66821934626309    2.68918459574932    5.24061544774862
C        -0.13808227452574    0.20364579662837    4.99479057801135
C         1.77909389060907    1.95174443800795    5.30685537649853
C         0.83210190777695    3.37844204079972    3.30032320407775
C        -1.11557715579962    1.59356946372595    2.98546406471778
C         1.48305773382209   -0.86420578263529    2.51060120700070
C         2.27946431633295   -1.49457084536868    1.36141239298984
C         3.89650467416291    0.16881908023950    1.50629195282483
C         3.14413602055620    0.84323767555767    2.65997100975093
O        -1.33573422828141    3.28942455270249    5.96340860235791
O        -0.56056643516112   -0.62106344750087    5.67449954252038
O         2.50144481807369    2.17495222299999    6.17213077031419
O         0.99107274684458    4.46948725099018    2.97290346142125
O        -2.14438752738464    1.58792038152342    2.47106209417463
O         3.65632703066675   -1.21965576639040    1.48219001141382
H         1.40409752766204    0.95659988517420    1.64862498943907
H         0.41829649547241   -1.06997390955363    2.38152040485051
H         1.81772988706287   -1.29061877926628    3.46039022483403
H         1.90440620884960   -1.11229352362476    0.39687886515549
H         2.18497447175053   -2.58123738332843    1.37195302812060
H         4.97462535278857    0.28828534253632    1.62139550383016
H         3.58711703319320    0.61921689148490    0.54789654576601
H         3.49695268546457    0.43421206083563    3.61075703731906
H         3.32693226551203    1.91983856097430    2.64448254521413

