103
CSD_code = VILFUS | q = 0 | S = 0 | Stoichiometry = C48H50Cl2P2Pd | MND = 4
Pd        8.77423945690414   15.04257995651940   -7.58594575261808
Cl       10.34005671552958   16.49796986028775   -8.42578905457330
Cl        7.25134771502443   13.37000750445613   -7.19105528928080
P         7.23029328865211   16.36892664176669   -8.56531566399339
P        10.34940664302181   13.58746531775544   -6.87285571569738
C         5.45901767565676   15.96990810230060   -8.38946622936732
C         4.88184974177742   16.01937244760276   -7.11540059502486
C         5.70207842929423   16.40693545096804   -5.91813457349249
H         6.76395720226970   16.46458380751006   -6.23195786407675
C         5.64415439635463   15.37335131006684   -4.79140648690243
H         4.63962585123659   15.32539287408965   -4.36754681016213
H         5.89250212922642   14.39003719352091   -5.19378247433803
C         6.64049296672265   15.77875869976294   -3.71186229614582
H         7.64079578033428   15.81437756970188   -4.15859599507743
H         6.65387899679353   15.03843605737062   -2.90901084236453
C         6.28408828348499   17.15138773501721   -3.14823498713867
H         5.30496692811436   17.09596673894934   -2.66582500125427
H         7.01230818882102   17.44442844499140   -2.38872927882737
C         6.24306266851691   18.20184429630269   -4.25560359318571
H         5.92513291452158   19.16271467535382   -3.84476238098367
H         7.24437994035557   18.33550243360105   -4.67024064625314
C         5.29658790415834   17.78092971023888   -5.37582842578449
H         5.31954642147615   18.52170336316823   -6.17911090241929
H         4.27335400796487   17.73097521783161   -4.99669804947537
C         3.53267276081081   15.71797382906547   -6.98659170385369
H         3.07103566149450   15.75172756147703   -6.01108205237972
C         2.76811110047974   15.37244389804040   -8.08599109812015
H         1.72054523249688   15.13973625913461   -7.96216914409300
C         3.34612025698238   15.32210637160628   -9.34236491779167
H         2.75516315161499   15.05037399034491  -10.20475936599547
C         4.68786420950858   15.61877815102729   -9.49231385013089
H         5.13893776216830   15.57515521315895  -10.47427264396660
C         7.19394234660545   18.17235396436550   -8.34142258864956
C         8.09743638485153   18.78752471584673   -7.48501533657800
H         8.85329008775121   18.18758937386304   -6.99375378586396
C         8.03739659644177   20.15488788292090   -7.28300051764317
H         8.74209970168744   20.63265918987217   -6.61852375542225
C         7.07366675713420   20.90896303645345   -7.93120441140418
H         7.02583738711029   21.97649082255866   -7.77374293069102
C         6.16475537364914   20.29602248625600   -8.78036703917756
H         5.41013100728124   20.88509663506064   -9.28139898977510
C         6.21786901667104   18.92968069365892   -8.98321973431961
H         5.50049008099003   18.44324522967299   -9.63114735741776
C         7.57117969784762   16.09614547425994  -10.32950026148761
C         7.69045960891547   14.75668996982246  -10.70700353588404
H         7.53366320680394   13.97361714203909   -9.96498853533662
C         7.98174314982847   14.43095385804894  -12.01768670160989
H         8.04796730534951   13.39388201455370  -12.31291424881066
C         8.19054062673904   15.43634967206950  -12.95005172721672
H         8.42688156672778   15.18272673306186  -13.97314714671041
C         8.10798559435583   16.76482620634015  -12.56896380133485
H         8.28828082190272   17.54647959211625  -13.29262753968365
C         7.79631329256455   17.10034011806806  -11.26194052412692
H         7.74117379373796   18.13796623794481  -10.96527273504332
C        12.09809333956020   14.10367793117008   -6.83010345641573
C        12.47920436512242   15.12319476714165   -5.95036205552610
C        11.46980727929679   15.77400012359793   -5.04762022751371
H        10.46214968475682   15.41863604488056   -5.34381059934585
C        11.44520958848051   17.29840381775749   -5.17920007660693
H        12.38500450375901   17.72698625001321   -4.82693948350067
H        11.32092500940985   17.56530890430554   -6.22983912968910
C        10.28931584949937   17.84161153976834   -4.34774013473560
H         9.35626356094045   17.40785012978592   -4.72325544007881
H        10.22451239716685   18.92690640184950   -4.45145259949346
C        10.46828651510923   17.46839095461702   -2.87902124427938
H        11.37764454839992   17.94002280045521   -2.49813232609519
H         9.62788149958907   17.84558549325024   -2.29210235250201
C        10.57642057913371   15.95460440364113   -2.71250760556390
H         9.63247009967582   15.48648298234735   -2.99953420572035
H        10.76233268401986   15.70778810537337   -1.66481001817248
C        11.69453783816411   15.38808319602924   -3.58221777311746
H        11.72741567467280   14.30023241401050   -3.48291135617217
H        12.65730732006752   15.78301717868543   -3.24994894843752
C        13.81331631286238   15.50670637981231   -5.91938965527762
H        14.12617209331032   16.29003437982650   -5.24532376530991
C        14.75098908895854   14.90489742768123   -6.73867426299408
H        15.78320749279153   15.22077243396395   -6.69864439406453
C        14.36573252321246   13.90195267234300   -7.61089394287094
H        15.09234442788656   13.43032249913241   -8.25614536267695
C        13.04267406318980   13.50440090133694   -7.65661664367825
H        12.74182844173270   12.72300226979358   -8.34115721375030
C        10.29653109652602   12.32717219406143   -8.18258937749269
C        10.20093238147922   10.95821186677448   -7.96983990476052
H        10.18368461010101   10.56554229444374   -6.96323238117785
C        10.11077252908603   10.10035972326896   -9.05335422939027
H        10.03071543463841    9.03595262006021   -8.88667242506479
C        10.12055049793480   10.59994691039243  -10.34454851469207
H        10.05542348727108    9.92400704969808  -11.18471201907894
C        10.20193893355130   11.96752003586450  -10.56041665773544
H        10.20751049909433   12.35935271403400  -11.56705014333859
C        10.27306992529643   12.83169774138856   -9.48477951200150
H        10.32972985101094   13.90947450918616   -9.64574994736127
C        10.22436820268436   12.67358153088475   -5.30656145108638
C         9.14120975070623   12.88274795793389   -4.46326404389360
H         8.35428600931176   13.55934016343328   -4.77134234597867
C         9.06743062370147   12.21514687283690   -3.25374188046634
H         8.22308657560887   12.37668665348904   -2.60001288655657
C        10.07568298651665   11.34180630309172   -2.88217972254130
H        10.01893985093840   10.82021792792287   -1.93803726091828
C        11.16290950350807   11.13768521889449   -3.71829076859556
H        11.95159986862070   10.46007995941100   -3.42457944493271
C        11.24369409839466   11.80474528815101   -4.92638328877823
H        12.09860871652574   11.66301033023545   -5.57451063160673

