89
CSD_code = VILHUU | q = 0 | S = 0 | Stoichiometry = C44H42FeS2 | MND = 2
Fe        2.16812714276597    4.97026125577543    1.52229107606275
S         1.45555045812839    5.59870675713702   -0.33650946079888
S         1.53631901995137    4.09114181127696    3.30320108816585
C         1.80436070537010    4.34753939014518   -1.52579705496128
C         1.15504164784478    4.36430448158497   -2.76189619175434
C         1.46815791737947    3.39316554706343   -3.70139214504707
C         2.41493699806699    2.42154967240234   -3.42352090630111
C         3.06050127797890    2.41396623137046   -2.19914126937298
C         2.76431338348032    3.37521703467092   -1.24336461245296
C         0.15110006579927    5.41246899026787   -3.05720941700916
C         0.56711167507099    6.64001061727738   -3.57292016542392
C        -0.38493821782111    7.60890624466571   -3.85394338310203
C        -1.72642923484432    7.36609283666291   -3.62264741003890
C        -2.12879883310103    6.15185154355675   -3.09729229941599
C        -1.19864363986428    5.16445014792523   -2.80742028710287
C         2.02608695261919    6.90776521933525   -3.79026597757582
C        -1.62200346979808    3.85674876347292   -2.20849644570343
C         3.47841347596584    3.36749533404669    0.05844927687158
C         3.09314801521177    2.45784656880978    1.05638110071574
C         3.90212101835082    2.30323174796552    2.17984133079967
C         5.05409284951048    3.05350272336543    2.32923773473171
C         5.40815255816581    3.98305487365662    1.36439395348192
C         4.63379877415502    4.15354363529031    0.22398993891709
C         1.86747707363585    1.61286625527339    0.87030113158207
C         5.05738465983075    5.09651699569576   -0.86440637061360
C         1.20862451449302    5.36467763362282    4.47707883604350
C         0.65868761691526    5.02253348712039    5.71461696007316
C         0.42083700895816    6.01939491809267    6.64909253041812
C         0.72893910587183    7.33898751457164    6.36512142731549
C         1.28110806863584    7.67104464644848    5.14070100340891
C         1.52791611560126    6.69193495514305    4.18741963926881
C         0.34823986909864    3.60746751378496    6.02391057718997
C        -0.93237518172686    3.11120170275693    5.78013116736444
C        -1.21009188655130    1.78699563097668    6.08593576120041
C        -0.23303714154445    0.96788117159378    6.62137301446679
C         1.03731352745806    1.46453596438462    6.84871373866188
C         1.34312671163727    2.78472638659146    6.55263199040279
C        -1.97686630569199    3.99945434372415    5.17374801918508
C         2.72591426459641    3.32208247346896    6.77067468544323
C         2.14765291679912    7.08348581476116    2.89623342733679
C         3.53277698817514    6.90372391974982    2.70353200303599
C         4.13922438995105    7.48231073710302    1.59075327910705
C         3.40142830625808    8.22967709436936    0.68940223921555
C         2.03753062304421    8.37927793842701    0.86617794154869
C         1.39420407242145    7.80067055526982    1.95407486007480
C         4.36607598249778    6.24751928012155    3.77109827189998
C        -0.08204950223905    7.97985233590432    2.14477108091120
H         0.96497545314339    3.40732510383544   -4.65788316274854
H         2.65253614999726    1.67143675113246   -4.16321676097936
H         3.80665802109020    1.66399741925307   -1.97801666714011
H        -0.07103129545572    8.56200854194967   -4.25575137614267
H        -2.45968710560174    8.12729517403089   -3.84685853605163
H        -3.17656854016509    5.96781118974205   -2.90638103117067
H         2.53664568167132    6.96074194657865   -2.82830963347015
H         2.17359966011525    7.84991919034097   -4.31253964587690
H         2.48728918193014    6.10642728002205   -4.36597555018844
H        -1.25542739521789    3.02082355582239   -2.80288503648838
H        -2.70533472023376    3.79429503254751   -2.14229901043659
H        -1.20620324746109    3.75618365220659   -1.20552978236633
H         3.62383811053652    1.58138576216496    2.93310717192182
H         5.68274148499049    2.91096621033590    3.19601193126002
H         6.31314188059125    4.56146141614177    1.48169043281515
H         1.05589549285250    2.20854881939706    0.45555765825077
H         1.54615073051484    1.19810803356570    1.82151032881303
H         2.06935581038882    0.79366256641207    0.18032763653880
H         5.14830549160545    4.56644997599269   -1.81206733423562
H         6.01256449484426    5.55754023081292   -0.62648109488021
H         4.31389727125040    5.88345492357750   -0.99446332599091
H        -0.00409877182762    5.75083395016303    7.60592003960755
H         0.54273908397027    8.10825283149624    7.09983389205731
H         1.53576412106046    8.69691431441874    4.91584226547618
H        -2.19986764857993    1.39470212266788    5.90018338365983
H        -0.46069867143704   -0.06156306268135    6.85736469062675
H         1.80233709902579    0.82076491547403    7.25941803955537
H        -2.11748482155943    4.89769662346241    5.77381258400441
H        -2.92743737112374    3.47832293000711    5.09157872699185
H        -1.66497142758317    4.31354105093716    4.17753004992354
H         3.19470620977454    3.53591435951082    5.80970081099303
H         3.34186469737930    2.60133395722028    7.30297142927040
H         2.69660227918293    4.25132016576881    7.33807073302065
H         5.20662749346471    7.37990249453425    1.45939886703366
H         3.89127983103052    8.69751331091466   -0.15190826284662
H         1.46027106611009    8.95191329548111    0.15605204930933
H         4.18099911884571    6.72204543745737    4.73452541044358
H         5.42360303840964    6.33138495160571    3.53546370399213
H         4.11874675485876    5.18942043233375    3.86701906153866
H        -0.52064004508618    7.09088930815301    2.59232601142511
H        -0.56395145756166    8.16777190855906    1.18898072086346
H        -0.28349552794824    8.82354123072452    2.80521289329019

