14
CSD_code = VILKEJ | q = -1 | S = 0 | Stoichiometry = C2H6Cl3OPtS(1-) | MND = 4
Pt        0.19679335824089    7.07305370476644    7.79260826166950
Cl       -1.53949772748811    5.76799985868311    7.22282587759890
Cl        1.55192022846225    5.25206972666185    8.14962418537494
Cl       -1.02816507219153    8.98327040838707    7.42669152584224
S         1.96325260545741    8.38235043228127    8.37022340879668
O         2.20652243657047    8.63339628761570    9.78283428038764
C         2.01395459632028   10.02329900523599    7.55950679794829
H         1.11247925777928   10.55197360330134    7.84845816951810
H         2.89909462484551   10.54562779008960    7.90343147972505
H         2.02121297927650    9.87351773311203    6.48672003981691
C         3.54695766579702    7.77517218030424    7.68339446055026
H         4.34279078951570    8.43428383627526    8.01009143019122
H         3.69140683502533    6.76981584787905    8.06484380179579
H         3.45837742238873    7.75186958540680    6.60344628078809

