86
CSD_code = VILNIP | q = 0 | S = 0 | Stoichiometry = C33H49PSi2Zr | MND = 8
C        -0.46230433954771   15.04874507094520   12.70055908770441
C         0.34104248727477   14.26529347957980   13.59379649296534
H         0.23584472568751   14.23898474544495   14.67476118562404
C         1.35230473914226   13.67297150794099   12.82244917984206
C         1.17251109356409   14.05047434558534   11.46691664256654
C         0.05004287033302   14.87562488192509   11.37977047546277
H        -0.29804394895381   15.42824823338936   10.51558561318030
C        -2.88814771077563   13.75300203845181   12.34401576183921
C         2.69485412599549   13.01523639234285   13.04107599665658
C         3.21647251038153   12.84321460082065   11.58602385966965
H         4.28100972961500   13.06787067199102   11.52237913981376
H         3.07907821594709   11.80311847322607   11.28138948652825
C         2.39558129618291   13.75545072276261   10.63546282579062
C         2.59760165859513   11.65002063086565   13.72976532450969
H         2.25201447484467   11.76092888766448   14.75629645760602
H         3.57660277226431   11.17310924309989   13.75352229035353
H         1.90450545231479   10.99900451271476   13.19010110371857
C         3.60693555699336   13.93085969340853   13.86656023967371
H         3.69711387493118   14.90772876187829   13.39868003624607
H         4.60050903407038   13.49685913200288   13.96156169501010
H         3.19503953428680   14.06992112049119   14.86417369513991
C         2.09441528684348   13.04833498495420    9.31164515288900
H         1.47185087348717   12.16807311512953    9.47197163883031
H         3.02119026032552   12.73818813911595    8.83125017116441
H         1.57295947089336   13.72112257333291    8.63334989510175
C         3.14141164938056   15.06367843485085   10.33908373357659
H         2.52453863721508   15.71687819514043    9.72544591587777
H         4.06885684639083   14.86250758435788    9.80605330028314
H         3.37547441228852   15.58988054672588   11.26067765226812
C        -2.59663180104309   16.09040735499433   14.44235100525040
C        -1.62468259033648   16.53811872091234   15.32829475886244
H        -0.57994829953400   16.46614080817881   15.06215781432295
C        -1.99867207292269   17.10258896451514   16.53499824610946
H        -1.24073818088314   17.45520003664679   17.22039445006714
C        -3.33814481673810   17.22158551522113   16.86633494831892
H        -3.62377166461272   17.66189637176288   17.81043944214765
C        -4.31240590449131   16.77768394959105   15.98552764409284
H        -5.35781135701406   16.87411883935802   16.24113314767178
C        -3.94093136563720   16.21043480035840   14.78268341213864
H        -4.68811109570734   15.85449795150316   14.08339656316945
C        -2.60170602172059   16.67794537417399   11.71747899148537
C        -1.99811801385596   17.91714271593391   11.88941083681349
H        -1.31789353166548   18.06600016365525   12.71732691093501
C        -2.27049906964067   18.94290275010597   11.00377574317336
H        -1.79906035572397   19.90715426407056   11.13112276409967
C        -3.14925173915067   18.73713025437448    9.95078956253931
H        -3.36021992967998   19.54232455791273    9.26181553531150
C        -3.75584745726613   17.50354645959170    9.77937011725136
H        -4.44155493321958   17.34649583677932    8.95893929509374
C        -3.47719844933242   16.47489062174579   10.66123635212710
H        -3.92861030692965   15.49479330181747   10.55076420153855
C        -0.81406112194208   11.24982342291411   14.08086792062585
H        -0.39088511843186   10.28796212423642   13.75429096782640
H        -0.12099631262457   11.67995172092614   14.81536973931470
C        -2.65228666366736    9.63999408915907   16.23757844002824
H        -2.37666682359261    8.66256302043450   15.85449798687901
H        -3.66760357576725    9.56922458767467   16.61491711045257
H        -2.00423529953505    9.85418709419725   17.08163198585888
C        -3.00842704437068   12.64990855346187   15.68064956398398
H        -2.54441828424053   12.78100122239893   16.65337812315303
H        -4.08143611615279   12.72366971062510   15.82373611078492
H        -2.69687746449930   13.48308188916229   15.04669094816821
C        -3.68873665635675   10.48901527411488   13.45712650503098
H        -3.47257921749702   11.07808743590122   12.56199893659672
H        -4.72946836093637   10.63758018662142   13.72777195771772
H        -3.57172771613108    9.43913856627001   13.20409518903776
C        -0.94907054230244   10.95879401875485   10.80197135876897
H         0.10150947144860   10.79202221285614   10.51451455695381
H        -1.30590233828983   10.01500324680994   11.23802246438327
C        -3.86011328745559   11.23500044854950    9.74552552005437
H        -4.09284388754469   10.24179084579356   10.11494836679207
H        -4.48471196489025   11.41180039123777    8.87567768109627
H        -4.14452795718100   11.95569831617544   10.50984690681169
C        -1.76049081861533   13.29890107292382    8.97551577022855
H        -2.11446110600833   13.87419090761291    9.83724529674496
H        -2.32574789169687   13.62319674677389    8.10626836941008
H        -0.71978262601296   13.55120648769635    8.79158529631147
C        -1.66910153853710   10.48040136646042    7.67703152194721
H        -0.63795422066473   10.59767341560949    7.35751538681692
H        -2.30305911837034   10.83652017641988    6.87122541109015
H        -1.85494881277151    9.41762241459163    7.79490281787183
Si       -2.00083693468493   11.42406266729905    9.31775275792724
Si       -2.49184525165763   10.98674102796779   14.87503250954319
P        -2.25080120036672   15.24557581033791   12.83817584956281
Zr       -1.00822623596674   12.61995798947957   12.29813100554816
H        -3.89483459554779   13.53572120518755   12.72014387425751

