59
CSD_code = VILQAL | q = 0 | S = 0 | Stoichiometry = C28H26Cl2NPPt | MND = 4
Pt        8.68862377429748    1.97509008615866    9.20547416978664
Cl        9.73067664553049   -0.01509909210418    8.87802623333280
Cl        6.66670441792451    0.97553262372666    9.69166063867863
P        10.79831440290314    2.61820729341690    8.59841820946389
N         7.07921760874617    4.49501073766887    9.82379955482324
C         7.76641571782649    3.59377765065020    9.53993711246658
C         6.16962761435109    5.44695612042193   10.13556975237206
C         4.81375320526229    5.19490686121637    9.88412435174501
C         3.90235620329139    6.18075316855508   10.22573525675689
H         2.85218950198218    6.00518816088621   10.04300453893902
C         4.30340583912168    7.38149338324901   10.79653786780739
C         5.65733356613528    7.59829029784456   11.03202205036833
H         5.97397169134078    8.52939475461749   11.47950817468554
C         6.60765056823706    6.64626146693038   10.71185366146762
C         4.39305406053441    3.90764693960672    9.25595862699591
H         4.71591249469345    3.87510760279914    8.21484961510506
H         3.31291787050144    3.79772011619852    9.28713413058376
H         4.85493359315161    3.05559663463784    9.75477669978013
C         3.30220387530032    8.44038617942690   11.13962094708387
H         3.53727701930979    8.89689221069079   12.09878132844915
H         2.29738441419149    8.02848542341360   11.18092149342812
H         3.31819085671443    9.22601670907334   10.38366056906344
C         8.06641954840313    6.85640409676631   10.97412525131218
H         8.44713042689796    6.07912412063276   11.63626984053582
H         8.23885782433043    7.82493167249720   11.43524813301237
H         8.63767160097046    6.80000884208871   10.04738278468069
C        11.19458890184444    4.40215097465599    8.66135578853837
C        10.26965880046540    5.24995195668634    8.05755313796078
H         9.37878601385823    4.81925948009267    7.61459403061736
C        10.48568478541575    6.61371245385391    8.02889996149103
H         9.76785941511373    7.26660275093107    7.55354713136790
C        11.62732218650726    7.14343022352138    8.61230931504581
H        11.79606397522907    8.20982985693169    8.59720705575234
C        12.55004906940738    6.30468297806621    9.21298560185752
H        13.44070447884371    6.71689939340197    9.66412395605103
C        12.34027571489078    4.93574875080997    9.23594187414134
H        13.06715209167967    4.28524617603108    9.70172838929828
C        12.13127285894621    1.83743522018229    9.53982719357706
C        13.04478321533503    0.94755538936787    8.99113012008110
H        13.00707559028657    0.71351076843061    7.93705215429169
C        13.98383191195922    0.34266842923687    9.80864611722653
H        14.69251526813293   -0.35340053958050    9.38447955058340
C        14.00795787879834    0.61365637974315   11.16664870746566
H        14.73832986910919    0.13163873510060   11.79951042356483
C        13.08375602520034    1.48727717265217   11.71917683799351
H        13.09065605092140    1.68343327526782   12.78129545110693
C        12.14397739602792    2.09489277890198   10.90941509896724
H        11.39983637841513    2.76471287800733   11.32612110358175
C        11.09058669779860    2.31460777012318    6.83644807179381
C        12.31460549452616    2.63059661956766    6.25350270869524
H        13.11021744115299    3.03992685659896    6.86209551513390
C        12.50231307744507    2.42207101063988    4.89984496698186
H        13.45421367543943    2.65658793936440    4.44616426682583
C        11.47045074779992    1.91529903525119    4.12440483541849
H        11.62386878667184    1.75025808901106    3.06820088488104
C        10.24307382029322    1.62666623320893    4.69852534949688
H         9.43799920935533    1.24143493812441    4.09086572157657
C        10.05045722085111    1.82946218284281    6.05312697516046
H         9.09478161037545    1.60210978194839    6.52087071074578

