76
CSD_code = VILSOY | q = 0 | S = 0 | Stoichiometry = C37H33O4PRu | MND = 9
Ru        4.52941750007073    1.01934791111539    3.49621238211248
P         3.26848308700710    2.46140233661389    2.26689416590809
O         5.28641243108002    1.29109020211149    6.79674965387079
O         4.40647743088868    3.35228053145720    6.98274486253779
O         7.92352070959544    2.06411945069026    5.83581326062901
O         7.90958492759355    0.46315996859413    4.25733336676881
C         3.81086741945006   -0.59062201306999    4.92963746509298
C         2.94625540916056   -0.53728059480944    3.82313584686752
C         3.71243746399371   -0.86886476609479    2.64809388201581
C         5.04041019409510   -1.12470043167385    3.06017472550045
C         5.10796192716785   -0.91606251640869    4.46266697418166
C         5.08453355178694    2.66223448474033    4.85601847163417
C         6.21638344111788    2.08001495643755    4.17488386732222
C         6.16727235467940    2.04044286052080    2.75853120436568
C         6.97931756643117    2.34238451278018    1.75186251254246
C         4.96397547214555    2.34006476812782    6.28177940138738
C         4.26485283727554    3.12598526961865    8.37482675922649
C         7.39984512512230    1.54172608130292    4.88350097761582
C         9.13096095335230   -0.02844873609339    4.78375162322439
C         8.18169296046158    3.16205687218537    1.87182161832401
C         8.41289366564914    3.98866988001694    2.97201594187013
C         9.57525551552873    4.72929906003289    3.06070897680811
C        10.52525971262181    4.66703693421597    2.05365735995093
C        10.29798662584895    3.86478848479857    0.94742251394335
C         9.13560760527888    3.12448610150502    0.85368672109238
C         1.48673489739523    2.11947184585514    2.45497321848244
C         0.99404496018738    2.15992185245302    3.75989915304203
C        -0.33328160358333    1.87617946127338    4.01434025582718
C        -1.17745975286091    1.52983495025032    2.96903909172312
C        -0.68822144076296    1.46799608465941    1.67577784746428
C         0.64048210834494    1.76162257922436    1.41409506916325
C         3.48982498894011    2.44071594953020    0.45524881752634
C         4.23102278790719    1.41788918288618   -0.12189040941609
C         4.40754967786384    1.37250410051434   -1.49359870741787
C         3.84377624998152    2.35097352704291   -2.29539510382743
C         3.10193784322939    3.37365357937886   -1.72439721316638
C         2.92354194453055    3.42195908075143   -0.35437537633774
C         3.33805263032564    4.27105758374207    2.54030211221530
C         2.29349931717193    5.03011006906150    3.05397093344780
C         2.45591467583612    6.39245010421547    3.24459381609656
C         3.65589177696076    7.00629508365464    2.93073886619440
C         4.70057612280409    6.25482907066063    2.41478186438107
C         4.54304343974246    4.89671988002324    2.21902972481150
H         3.53528630490473   -0.47510993515253    5.96687019132034
H         1.86592310059492   -0.46283559457224    3.85476545049453
H         3.28251318422860   -1.09427593502014    1.67849873143316
H         5.84154868817882   -1.50190747757075    2.43982782950507
H         5.95650449820030   -1.13293149691798    5.09415952555561
H         4.77115891254467    3.67722010838795    4.60279492367790
H         6.75384861070428    1.99540396453058    0.75034149767092
H         3.88389841961153    4.05224661421810    8.79785562159119
H         5.23044152077573    2.86951590519089    8.81581572500086
H         3.56683855575255    2.30552100752373    8.55976193642856
H         9.34783637785996   -0.94891291030822    4.24699705822569
H         9.03359304763380   -0.21871786232327    5.85502598330083
H         9.92833570479803    0.70179734034276    4.62746806697029
H         7.67285723278495    4.05546487005633    3.75587165735559
H         9.74067290754996    5.36070065933757    3.92146421659130
H        11.43454902385543    5.24533732618744    2.12761374116704
H        11.03086365584215    3.81693803796249    0.15445895781625
H         8.96299998423021    2.49724743008478   -0.00996067243573
H         1.67572157687230    2.40630719161076    4.56663915482538
H        -0.71196769876276    1.91556156146957    5.02538952755029
H        -2.21420521034404    1.30048708174202    3.16628429464701
H        -1.34339330625741    1.18721301521378    0.86401243555353
H         1.01788432254710    1.70825458296120    0.40293649899851
H         4.67296561028866    0.66978251321621    0.52432111806306
H         4.98740201751771    0.57691073713786   -1.93879219886521
H         3.98360345722692    2.31986690792529   -3.36591638204815
H         2.66292905582428    4.13645945160152   -2.35080237537451
H         2.34633231657679    4.21919385212608    0.09391184866669
H         1.35048200186059    4.56520587653393    3.30113441047799
H         1.63819356835889    6.97556298820283    3.64260063805542
H         3.77783069183462    8.06777021554165    3.08731085678642
H         5.64032570373190    6.72630932419251    2.16783281987712
H         5.35452965125431    4.30241705469623    1.82064841612786

