51
CSD_code = VILYUL | q = 1 | S = 0 | Stoichiometry = C20H25ClN4Rh(1+) | MND = 8
Rh        6.86109159935589    3.26955389325280   -0.03454152201072
Cl        5.55057461202266    1.55283293151529   -0.84156687884114
C         7.39233003494392    5.37783593351313    0.23778364059402
C         6.84229468846278    5.22327498734030   -1.09885073001553
C         5.50990559906722    4.77836142910504   -0.97556476470547
C         5.21298537043463    4.64034664980649    0.44074970628486
C         6.35458531867014    5.08619584675440    1.17851768090392
C         8.70167861790937    6.02257109085849    0.55313735423464
H         9.46117377927452    5.76494754213363   -0.18144802277874
H         9.05919144651407    5.73680551163086    1.53958422054113
H         8.57620920356645    7.10660913036719    0.53989052678250
C         7.52894149658839    5.64095453311889   -2.35743283850361
H         7.33982890422459    6.70262792314064   -2.52472131186902
H         7.15075361722460    5.09164399523047   -3.21613363888987
H         8.60524761586776    5.49939217602629   -2.29226215380878
C         4.49625181065175    4.61944844123525   -2.05655917359036
H         4.00264823282152    3.65127877469574   -1.98772280797205
H         4.94616036190066    4.70971464557633   -3.04080523479419
H         3.73521791017309    5.39292241827382   -1.94829394585016
C         3.83220090356437    4.42478898948398    0.96525927513457
H         3.36294903206405    3.56491332647458    0.49094885478212
H         3.22960632654441    5.30243763893890    0.72560294494244
H         3.82556092757993    4.29053765807004    2.04305377040435
C         6.41299754933849    5.33465740143356    2.64908791933184
H         6.09145312245064    6.35919897745622    2.84232218226374
H         7.42293319685589    5.22046635518205    3.03574138980050
H         5.75482215977002    4.66346259128676    3.19545498898758
C         6.99232337119668    1.91706812793828    2.61574072632601
C         5.60660718233614    2.00754723037320    2.78805506203279
H         4.97701185452372    2.12634855928459    1.91759022536155
C         5.05986096286852    1.84637757977223    4.04304309781882
H         3.98772640847895    1.88819811959789    4.16437785457927
C         5.86585995852068    1.61038729683614    5.15620556562102
C         7.24706724491273    1.51413835891341    4.97021954221758
H         7.88197487123782    1.32419592902045    5.82233010797715
C         7.80947374980535    1.64876540388869    3.72210563513212
H         8.87599912214560    1.57347120602971    3.57711020391425
C         5.27830107246204    1.46674632698989    6.51772933233376
H         5.74848046530757    0.64592878474352    7.05477918966293
H         4.20678721631564    1.29491610528981    6.46993950575188
H         5.45339503411947    2.37583815420639    7.09413643936988
N         7.53512773739550    2.04762525029237    1.34759279419036
N         8.55472399830358    1.31245876573761    1.09456259130663
C         9.00126346750908    1.46044411880674   -0.15757775118393
N         8.45805071839321    2.36857005888269   -0.98309323285321
C         9.06696586743467    2.21867744517789   -2.18261600785297
H         8.80858148554993    2.81477183956974   -3.03497784914329
C        10.00202909691929    1.22187939432267   -2.07999920422382
H        10.67916626188870    0.82922137146529   -2.81005329177046
N         9.95896044031071    0.76068445660476   -0.80000910517194
H        10.49646897427505    0.00345932455040   -0.40842286283371

