41
CSD_code = VIMCIF | q = 0 | S = 0 | Stoichiometry = C16H14N6S4Zn | MND = 4
Zn        5.57037033622523   -0.85580192317785    4.26521579173517
S         1.28762408425875   -1.05410329032011    4.09828314752444
S         7.60519621511515   -4.59433121763463    3.72641130559756
S         3.77809191495859    0.20413068526005    2.85059441019084
S         7.18382632817229   -2.23163692942714    5.61906246774819
C         7.41254427780005    0.32204390313568    2.09503954515750
H         7.18460372030987   -0.61690441544718    1.61090641048457
N         3.68556548576059   -1.42343279729781    4.88563811913266
N         2.93802282866742   -2.14340164539543    5.72006544133581
N         6.16317041356961   -2.54709337011709    3.24040970195315
N         6.06904691239577   -3.29833588747701    2.14486389522351
C         8.32413079697345    2.52004735649220    2.10508473825672
H         8.83474468806337    3.33839257704644    1.61976298866363
C         1.68484250095664   -2.08970100039590    5.48375488158212
C         6.79634016247816   -5.39795934995237    1.11726713081483
H         6.42057451510820   -6.35532662051272    1.47542816081440
H         7.82667579606554   -5.53917100321460    0.79355736078142
H         6.19282089849335   -5.06268641489637    0.27825706738589
C         5.27673695895153    0.68463215117834    6.91885475993143
H         4.54024725930026   -0.08424410702256    7.10433547437517
N         5.78381693687866    0.71647722085916    5.69886106584376
C         3.00088407642882   -0.77273418132162    3.95988105623872
C         7.88235266308569    2.64896861082616    3.41037225993036
H         8.03012740247873    3.57408306102785    3.94355122503577
C         8.09268287789594    1.33075642094940    1.43217079227874
H         8.41968321041453    1.19073145558119    0.41459498170777
C         0.63926856077958   -2.79288162847577    6.25725003393646
H         0.08219840062914   -3.46795565203818    5.60916341761668
H        -0.06263884030559   -2.07631370904600    6.68179401724988
H         1.10812361320578   -3.36143536091512    7.05566662481152
N         6.99206172193548    0.44603727578469    3.34181903159581
C         7.16914849667810    2.54029877976313    6.33489875171296
H         7.94351633555320    3.24806273283822    6.08716624032075
C         6.93025883401506   -3.05701864619954    4.18947016010955
C         7.21958627287662    1.57902646677511    4.00919734364867
C         6.71016693229532    1.62554580986840    5.38872430338275
C         6.73117742811883   -4.38835555423361    2.19541162271832
C         6.63777162086671    2.50917093204417    7.61248833055940
H         6.98258705602597    3.20507139268173    8.36267860935171
C         5.66622684727737    1.56758124366279    7.91298181841490
H         5.22852345920873    1.50946662868593    8.89636551482186

