103
CSD_code = VIMCOK | q = 0 | S = 0 | Stoichiometry = C40H57Br2N3Zn | MND = 4
Zn        6.79452494624051   -3.81811488228112   13.19161163688298
Br        9.14311433956671   -3.35936593494031   13.29326914796926
Br        5.52699969821442   -5.77300188613933   13.16377122784328
N         6.19724606809707   -0.55031579575549   12.98001235594518
C         6.14784873161382   -1.22095848860174   11.77409216882569
C         6.06473830541386   -1.07176865942062   14.25576710784805
N         6.00825763603529   -2.32824433075856   14.49619567938574
N         6.07662206130129   -2.49636377009994   11.68768059460042
C         6.43202426636829    0.87647491578866   12.90037363122036
C         5.64497215194356    3.12361175210303   12.68564069450198
H         4.83809891562602    3.83066340299113   12.57598079413050
C         7.98877411074066    2.69479323263732   12.89903230815961
H         9.00150168032804    3.06099029713839   12.95047058401235
C         5.80408819768854   -3.11766133726049   10.43040328412793
C         6.83266287062044   -3.48226827188435    9.55288157690826
C         6.94495613877066    3.58604224675546   12.75486656856683
H         7.14245112777504    4.64556328950953   12.69624777449345
C         7.75374892054842    1.32777921765760   12.98242419257772
C         3.91461696859876    1.31505710767692   12.65590725584210
H         3.87895691463314    0.22076158631183   12.62029841116735
C         4.18358033113667   -4.06878018544495    8.93937234400970
H         3.15788139003572   -4.28472620718920    8.68605550739453
C         5.35903852510848    1.76552495433012   12.75058672785755
C         6.70725724893403   -2.82262306498131   16.82350280664681
C         4.44439051230017   -3.30490719407508   16.05597743698942
C         3.32647451128794   -2.94100093681693   11.00010685394113
H         3.73581849122020   -2.53836960299932   11.93224274101964
C         2.39790304910966   -4.10144369375397   11.35656653881254
H         2.95319580112631   -4.89511342415790   11.84929206286525
H         1.92429071904040   -4.51365464064156   10.47012327382344
H         1.61256808204510   -3.75145599301730   12.02332614582846
C         3.38513775951946   -3.27728109586388   14.97848414950087
H         3.88569806633582   -3.31938885237109   14.00729574657429
C         5.08904345191929   -3.80370087491330   18.32402434852275
H         4.83825232197528   -4.18846063560225   19.30107761357064
C         8.28436933214672   -3.16012473010904    9.81644766179937
H         8.36587228787157   -2.58602442307359   10.74227718124452
C         4.46655881954017   -3.39458366814615   10.11817357507680
C         8.13250057284532   -2.36482320983826   16.61782773732902
H         8.24672419883370   -1.96047922953074   15.60963767790056
C         6.50156641270681   -4.16856972924030    8.39177753494093
H         7.28752127940493   -4.46866088731567    7.71669528983414
C         2.60279309586323   -1.96286397937008   15.05547232606716
H         3.26436819493248   -1.10825703631696   14.92848588107313
H         2.10922042289168   -1.87261369557592   16.02121402100835
H         1.84458672390583   -1.93074740180904   14.27581880874283
C         8.91456168885249    0.37714573174344   13.14820772402575
H         8.53986255620802   -0.63574414775551   13.30111547617030
C         6.35962597918429   -3.33475927862302   18.06761664990802
H         7.10219138957600   -3.36251874158886   18.84928821468033
C         3.24292719338800    1.86589765111390   11.39080507351161
H         3.85333412659695    1.71846716366757   10.50231017578747
H         3.05503902320078    2.93184420042113   11.48883563849565
H         2.28850705732755    1.36894434506971   11.23488397710719
C         3.09789052448071    1.78246720447827   13.86666841434548
H         3.44286925019502    1.33344587027339   14.79438247547179
H         2.05560183436735    1.50340467129079   13.73120598526031
H         3.15265933595607    2.86324411066154   13.97244951564596
C         9.76886276026412    0.73675068908272   14.36615630218918
H         9.15551368583378    0.86803025796431   15.25541119122856
H        10.32817221355633    1.65386927903809   14.20052870549491
H        10.47462697084158   -0.06877064614171   14.55012523441948
C         2.43556363705818   -4.47085516632358   15.05805194893251
H         3.00035441633111   -5.39857218202831   15.08713693248171
H         1.79838728805119   -4.49200109321996   14.17880274098887
H         1.79223821714902   -4.41352969957449   15.93240745697360
C         5.19074451672116   -4.46803448874930    8.08457230550388
H         4.95369442387562   -5.00387284287732    7.17795338619936
C         4.14140129927094   -3.78729656781028   17.32008146445646
H         3.15186631625209   -4.16033557954529   17.52450154293345
C         8.53155558796522   -1.27228003218096   17.61387257026517
H         7.82817896757014   -0.44192510543586   17.60262259584660
H         9.52039207397171   -0.89529315581441   17.36317419045897
H         8.56805850337020   -1.66476578915108   18.62669425630723
C         5.99586248770370   -0.05107593015410   15.35474100686053
H         5.59571283853654   -0.51231385383285   16.25512254867747
H         5.39120521820132    0.80629417762348   15.08183985085306
H         7.00140909861777    0.30949220728696   15.56641592898953
C         6.16423212894431   -0.34598269733650   10.55383715853756
H         6.12350925042274   -0.96678186582308    9.66224449583202
H         7.07226943944905    0.25337474268259   10.53292779707308
H         5.31732829282227    0.33209790132230   10.54953090361658
C         5.73340585446045   -2.80456045208441   15.81514624365168
C         9.08948126932664   -4.45177841400387    9.97758321636181
H         8.61222769370118   -5.11416520386376   10.69797757955947
H        10.09100591876357   -4.22394013283390   10.33378952367345
H         9.16452387001055   -4.98399720021688    9.03255761577527
C         8.88006585741962   -2.30140686959811    8.69779252073330
H         8.30757690159566   -1.38596478403774    8.55662134716257
H         8.89418993644635   -2.84081343849041    7.75430475301344
H         9.90268184328258   -2.03301832770885    8.95258690671676
C         2.54349049578165   -1.82340694462987   10.30372793211695
H         3.19918969561737   -0.99913763306945   10.03045393091898
H         1.76395459273708   -1.44506891074602   10.96240937968985
H         2.07331021577019   -2.19614751641094    9.39710778901060
C         9.07999603243849   -3.56017648873530   16.75834542413340
H         8.74776430132660   -4.38997448657267   16.13923861703044
H         9.12039220110869   -3.90491696387191   17.78860256915714
H        10.08098949163985   -3.28023904934357   16.44080534140305
C         9.79208155825072    0.34967750277906   11.89426302698096
H         9.21638996104815    0.07232656891618   11.01432749017620
H        10.57414775371299   -0.39230956432300   12.02950419984652
H        10.24990931128786    1.31961271548889   11.71484376998274

