65
CSD_code = VIMDUS | q = 0 | S = 0 | Stoichiometry = C27H30Cl4NNbO2 | MND = 6
Nb        6.06516719221300    5.47472072065963   13.53665328179494
Cl        6.86915432294471    7.16189703839819   14.75607955804706
Cl        7.90704774014169    5.65083270703645   11.99499900525436
Cl        4.58614220629376    4.87138656773996   15.33682771039940
Cl        4.61440665053729    6.79835773290609   12.38404871425502
N         7.49705866722362    3.91054625362423   14.56918378919442
O         5.63475347684715    3.92100373604158   12.76925222165528
C         5.67730467770335    2.62693821615110   12.65666838250978
C         6.55416830117948    1.93082295963171   13.52964057065434
C         6.61413220114476    0.53292477760341   13.47353474060035
H         7.28413447531710    0.03437702902391   14.15472189756762
C         5.84637661512781   -0.18226366532131   12.57726316466622
C         5.00243078061684    0.53298794305605   11.71823267961583
H         4.40869639956937   -0.02446987927478   11.01457986652583
C         4.88952931776755    1.91026236272502   11.72798189050078
C         5.88469995883416   -1.69904961499122   12.47690534599138
C         4.47493334690275   -2.25693050275648   12.71759427852312
H         4.49473934584248   -3.34357350476262   12.67983115899495
H         3.77133848768837   -1.90641476072481   11.96833063283334
H         4.11206487386766   -1.95227156505999   13.69654523919101
C         6.36964324131813   -2.09014219283850   11.07386850393144
H         6.42231510750426   -3.17273100344159   10.98638742503866
H         7.36033783721907   -1.68036408166518   10.89076113087114
H         5.70002306327263   -1.71970140640397   10.30320694443775
C         6.82819095054702   -2.32906045840416   13.50457718121435
H         6.80952190551943   -3.41113168218274   13.39584270524758
H         6.51780505619393   -2.08885450402089   14.51859050960595
H         7.85208947647714   -1.99624111678521   13.35306770403029
C         3.96320515768535    2.68299044515681   10.80040794743868
C         4.79248871999673    3.67527371924819    9.96952736727057
H         4.14552370613313    4.19512005069752    9.26682061338172
H         5.55960735275112    3.14611897079541    9.40698177381060
H         5.27892385275008    4.42420989689946   10.59511742509779
C         2.92516227522635    3.43577506555346   11.64752555175915
H         2.26313166306126    4.00303254753930   10.99745461731182
H         3.39587551630425    4.13268937460076   12.34172024604047
H         2.32700675620623    2.73125329641077   12.22256502050774
C         3.21322569908496    1.76453243766642    9.83036629735487
H         2.57517724488490    2.36835463973511    9.18962134382671
H         2.57831583660185    1.06074068928882   10.36352274118767
H         3.90459686595794    1.21762967851813    9.19337631045039
C         7.38719999776615    2.63536408587886   14.46561796418354
H         7.99569161367530    2.00047461623981   15.11784371645111
C         8.32185018597158    4.44972119199353   15.57470558928028
C         9.37746319199337    5.28836173173848   15.24578440663610
H         9.60227657607772    5.45681882916650   14.20116200042808
C        10.11167530174091    5.89672573114510   16.24805238543339
H        10.93860896192970    6.53981028178052   15.99207719389790
C         9.76001854235949    5.70480090448535   17.57342958451499
H        10.30693893706626    6.20742979982659   18.35635677259035
C         8.69541724234139    4.88817189919927   17.91329182666770
H         8.40134720413297    4.77961407869214   18.94612201720822
C         7.98074167025398    4.23011613022277   16.92057842342910
O         6.88082765709491    3.45208742761108   17.11696087652159
C         6.50966514872356    3.02953656593645   18.37355369572449
C         7.40137309125376    2.43151157504268   19.25598660830596
H         8.44163691436253    2.32252287950514   18.98431154858934
C         6.94094779353509    1.96919377772310   20.47639218502571
H         7.63376723630061    1.51009391613083   21.16598669338069
C         5.60326008158419    2.08845751252109   20.81205871774070
H         5.25300791404311    1.72927471955411   21.76775262614049
C         4.71531593494003    2.66415838958406   19.91773800770948
H         3.67029805963666    2.75183904879280   20.17352764063368
C         5.16296367232469    3.13636112194246   18.69850532753129
H         4.49656074844605    3.59217486726985   17.98292070342903

