45
CSD_code = VIMFOO | q = 0 | S = 0 | Stoichiometry = C20H18FI2N3Pd | MND = 4
Pd        4.72014266307908    0.32031592039073   -4.39235939359847
I         5.61094054453928   -1.04578446400800   -6.42725002720853
I         3.86611401602463    1.44130254654977   -2.17864064135760
F         3.28053223599136    3.51313543255667   -9.59189942365285
N         2.40661483178144   -1.50586613548224   -3.93343078610694
N         0.90355726180086   -1.00293419069814   -5.45136588041388
N         6.52075504966539    1.15957801590373   -4.15114903446133
C         2.95360295451625   -0.49385793492807   -4.67245024816059
C         1.14983335772101   -1.80431435250655   -4.39606903405206
C         2.01191897334597   -0.18986089081800   -5.63430894355546
C         2.96531256265284   -2.17036243305169   -2.89271368846396
H         3.97909834070977   -1.87324510327098   -2.62693605367779
C         2.25051346496698   -3.13865887865509   -2.25928383326487
H         2.68194984602606   -3.67106002828571   -1.42860304779485
C         0.94246401042477   -3.44200587974970   -2.68868383730041
H         0.37918708741070   -4.20272269840929   -2.17322598661683
C         0.38767674615584   -2.78356935953783   -3.75735090773635
H        -0.60928716976567   -3.00603125626448   -4.10035637981367
C        -0.33748372145642   -0.98546731348590   -6.18828886039933
H        -0.37699769933509   -0.05111742822371   -6.75151003411568
H        -1.16494001946373   -0.98913060530564   -5.47118499457496
C        -0.45793644009109   -2.18466467776938   -7.12619140946988
H        -0.48462475526814   -3.11482321267537   -6.56422932823443
H         0.38752984102968   -2.23050221312110   -7.80843161109182
H        -1.37154702408646   -2.10361435743364   -7.70829204004174
C         2.24216250817469    0.79053412673571   -6.68637253678412
C         1.85500765945604    0.59713336710090   -8.01202893509024
H         1.31836699499215   -0.29161452080348   -8.30134578417722
C         2.20044669474584    1.50970171253260   -8.99075654434314
H         1.91193157353690    1.35986230799137  -10.01889066166272
C         2.94655536975342    2.61943327915498   -8.64143020402080
C         3.35420865113993    2.84024876994938   -7.33688953847655
H         3.92882946153540    3.72255464626232   -7.09954773035807
C         3.00558975850418    1.92369441174796   -6.36396225780686
H         3.27880600575470    2.12254810202222   -5.32233604360360
C         6.86768048187691    2.20899335370992   -4.88881275195071
H         6.12122065135586    2.57480729466909   -5.59364981360941
C         8.11061957198894    2.80550627965928   -4.78091633572223
H         8.35524493002108    3.65857674021379   -5.39333162301814
C         9.02489551442204    2.28311341539728   -3.87852584038009
H        10.00456831461000    2.72306211006227   -3.77193735156970
C         8.65812693081554    1.18290466957662   -3.11884108525185
H         9.33922331354806    0.74103850396363   -2.40965857681503
C         7.39178604819269    0.65252643360308   -3.28534854076787
H         7.05810260717461   -0.21066350529663   -2.70871241946356

