97
CSD_code = VIMGOO | q = 0 | S = 0 | Stoichiometry = C38H53NOPScSi2 | MND = 5
Sc        1.47410838379378   14.68926641362949    5.58503839529163
N         1.30757209561965   12.60790965679817    5.08463277846101
O         0.43263744059094   15.54198121687927    3.55146838724559
P         2.50408849525558   13.36944189617623    7.80467241166545
Si       -0.25921119865356   17.02763885772085    7.58875839112445
Si        4.97304138078679   15.37203296915604    4.52792086655526
C         4.28921271162069   13.45625250541157    8.19984127084402
C         4.74977061141024   14.66355532520002    8.72459913447404
H         4.04586630018875   15.46823987225835    8.89527980350658
C         6.08776590422818   14.83660155080697    9.02224889467712
H         6.43293313139914   15.77420550226234    9.43404286757794
C         6.98720484443731   13.80937490963903    8.78366167339555
H         8.03453941260848   13.94355825044053    9.01094596571385
C         6.54074096397897   12.61637567806194    8.24199346247744
H         7.24195048805681   11.81843779518115    8.04379908039838
C         5.20002067767905   12.43869805832605    7.94565815654803
H         4.86459550588280   11.50992881235041    7.50806613355417
C         1.77293871248638   13.12836115564218    9.46659490276322
C         2.40167379005596   13.46342712896627   10.65942133558812
H         3.41394633496616   13.84055505285253   10.65300145394521
C         1.73900095418714   13.30107083947473   11.86416299470461
H         2.23967748802747   13.55765036237138   12.78666981761735
C         0.44438701263913   12.81282768678229   11.89225909813093
H        -0.06832989746160   12.68965144585992   12.83468634195313
C        -0.19035821317528   12.47929139135626   10.70576396163618
H        -1.19969399289204   12.09435177665700   10.72166903080848
C         0.46773076933929   12.63905540068922    9.50297923603333
H        -0.02037893238529   12.36972168255584    8.57434417958191
C         2.25279890172354   11.70313175628594    7.12891542733607
C         2.58296650598582   10.59394447871808    7.90410853071957
H         2.98414910780086   10.75554369354302    8.89726814257931
C         2.39565239944328    9.30972647562531    7.43820987595107
H         2.65692884696985    8.45946468725482    8.04941370025891
C         1.86379374276115    9.13225009784504    6.16487065397684
H         1.72164809327186    8.13268412117634    5.77752601540402
C         1.50844805875689   10.20990132379202    5.39258889168183
H         1.09575072833404   10.04924254584280    4.40585519883300
C         1.66891566534042   11.54273657303607    5.84337200599516
C         0.49185252934525   12.35008270143440    3.96246133355255
C         1.01167399464288   12.49694996309357    2.66572362932297
C         0.19296147754077   12.27858156859396    1.56965115167075
H         0.60263964304624   12.37690684383049    0.57308221180571
C        -1.13332445529474   11.91766595813317    1.73335955490450
H        -1.76054547849108   11.74267753853549    0.87137021573742
C        -1.64855232887186   11.77359708218954    3.00942323824214
H        -2.68385654931844   11.49060365388086    3.14111577689755
C        -0.85583937330462   11.97917027344600    4.12831187724787
C        -1.42723476249551   11.82603935738906    5.50666520241057
H        -2.51369103070184   11.78085651594392    5.47028614933972
H        -1.11973243938550   12.66781566319098    6.13468491877565
H        -1.05733625910095   10.91160236398833    5.97310908255332
C         2.45516496063007   12.86217755357391    2.49331853480125
H         2.70249596809764   13.73606814875332    3.11090382090311
H         2.68214823338605   13.07323982327874    1.45002096442371
H         3.08886511068430   12.03870134753976    2.82405293412180
C        -0.95812465101804   15.49429969634603    3.22199335615717
H        -1.46790530078698   16.34006239323368    3.70155081331262
H        -1.36107728235420   14.55761595466491    3.60977267023573
C        -1.06052453096573   15.59411372040013    1.68915942395606
H        -1.38023070906808   14.64793808667068    1.25879973244103
H        -1.77314057649311   16.36480768638314    1.40129833781754
C         0.36544753124668   15.95163900776105    1.24952025849829
H         0.39182203022727   16.73759363707529    0.49908825634629
H         0.87168296374610   15.07093081163025    0.85856081654058
C         1.01979180806915   16.38417268609028    2.55990509541364
H         2.10032699308493   16.24301579752241    2.58541310333299
H         0.77990236624192   17.43332109811627    2.78326176430256
C        -0.36645865913765   15.33023335107266    6.77999802327998
H        -1.28471981684829   15.28920134077654    6.16890452251056
H        -0.52424526935328   14.60339685667274    7.59788853565543
C         0.01667225782701   18.36305459691157    6.23758173876921
H         0.85351730565207   18.09342112892745    5.59621339982856
H         0.23141842268236   19.33377373633669    6.67246689803782
H        -0.86178782395432   18.47701935810736    5.60929936590202
C        -1.78227816903126   17.58679778635202    8.61616948669269
H        -2.68429759122157   17.59858561008937    8.01131371441920
H        -1.64994468343932   18.58478479310917    9.02362130455653
H        -1.95760512954792   16.91361582346869    9.45002481266605
C         1.25090730967011   17.04205549512059    8.76879193579240
H         1.20905200816493   16.20474549098393    9.46068407770198
H         1.30164581053141   17.95242545502441    9.35753313252018
H         2.17630869872955   16.96055580006947    8.20336817935030
C         3.35466672164886   15.95797718429005    5.29852806625930
H         3.11053812117572   16.93918248539202    4.85629775082733
H         3.60368321850382   16.19248901518814    6.35095485541314
C         5.15023829926643   13.46597369374825    4.72038022600162
H         5.94734378347062   13.22256265933333    5.41550567545812
H         5.38328022132674   12.97900191173535    3.77836506766817
H         4.23142217293470   13.02235621415730    5.11083249751935
C         5.05478977547655   15.80357680026872    2.65433270777766
H         4.30579599437580   15.27670378617984    2.07065980690236
H         6.02488974865310   15.54213777677323    2.24339022557525
H         4.91149131422527   16.86771420667604    2.49130213116742
C         6.55323518728525   16.13126351040288    5.30866799072488
H         6.56434401202859   17.21325772801877    5.21597242943752
H         7.45839796946901   15.75302908255128    4.84236431466201
H         6.60635568205198   15.89177144296948    6.36731443278518

