91
CSD_code = VIMHUV | q = 0 | S = 0 | Stoichiometry = C39H35F12IrN2O2 | MND = 6
Ir        4.26304401585739    9.25299116443785    3.69971910262279
F         4.92298618700858    8.34261319041223   -3.08352668418352
F         3.14710714066345    9.54357613494736   -3.21560492593028
F         2.98736832008321    7.42374738570536   -2.90600728993352
F         0.26109424700847    8.35229727227167    0.96544932566308
F         1.01894104409741    9.29118190466343    2.72740093614667
F         1.34415606366631    7.19073386695933    2.39700632546761
F         0.07797535216599   13.04304998999400    7.60357027891084
F        -0.80563433885351   13.62953304286319    5.73644426744355
F         0.89188252408723   14.70115047314340    6.50284470457698
F         3.47106120393072   13.97347871391397    2.55388048104641
F         3.98128496288856   12.03693914559094    1.81175660719077
F         5.14279520562738   12.93180209755267    3.38582007436579
O         5.58369403744842    7.58560393137975    3.37846255251691
O         5.04645070803451    9.28071943227446    5.70091140860671
N         5.84761592253902   10.18650571740666    2.92237325711806
N         2.86872960251599    8.16744450022202    4.61932349678898
C         6.83513823007997   10.69763926198807    3.65002951977156
H         6.61630390869466   10.89255469605773    4.69002122887758
C         8.08061874726592   10.97760271058241    3.12769421068752
H         8.84954194351630   11.39045868129134    3.76117263219025
C         8.33085805098024   10.71843948032565    1.78186159658012
C         7.28860019666245   10.19601881182951    1.02882340012825
H         7.44846135924815    9.97913455941537   -0.01503172950380
C         6.05363932236069    9.93802612016798    1.61391553034172
C         4.88584590830565    9.39976834599788    0.91871952326876
C         4.87472822934086    9.20028354377457   -0.45454176035271
H         5.74559970860966    9.40616780961524   -1.05647844104793
C         3.73008424107406    8.72424043733477   -1.07098964641797
C         2.59008775709620    8.48333676784353   -0.32264611768241
H         1.69264145978489    8.13408641634618   -0.81062700393931
C         2.61265840773674    8.68868538188253    1.05248860249929
C         3.75542428693977    9.12688942325506    1.73331093457631
C         9.66012805618420   11.01212667788540    1.16956737798118
H         9.83566895728051   10.38870559850630    0.29660701060137
H        10.46144281876103   10.85898561264576    1.88857306482704
H         9.69011760021921   12.05468059993691    0.85240581783450
C         3.69862957204595    8.50701976925851   -2.55603662915548
C         1.32794583662893    8.39350485453061    1.77912163538165
C         2.90814023230485    6.84271816653635    4.71095276235801
H         3.56301758545425    6.33257525925623    4.01899643504586
C         2.15762501098093    6.13450894783353    5.62649961014081
H         2.22456994465421    5.05863429575828    5.65960066599218
C         1.32009791711413    6.82270502718619    6.50078245541376
C         1.28096970608410    8.20602591745991    6.39058409267157
H         0.64645957006940    8.77024716358472    7.05463040030350
C         2.06011096923551    8.86167370964227    5.44437680984955
C         2.09056728372553   10.30690249162743    5.22698629733388
C         1.24934659997952   11.17386436423402    5.90921058742935
H         0.56202048977348   10.81258461188874    6.65781214966055
C         1.29028907408858   12.53099997807957    5.63487896522348
C         2.14292119990030   13.01425209926219    4.65709806688727
H         2.15534562107687   14.06939296052702    4.42925435722609
C         2.98165187787523   12.13545081099532    3.97970311252238
C         3.01253239937594   10.76132789237361    4.24694466379178
C         0.47827259626679    6.10435569215865    7.50222336486176
H         0.34305738757230    6.70423421965969    8.39881702492879
H         0.92205725000385    5.14930934315150    7.77149744157933
H        -0.50623259036541    5.91050482852246    7.07613908678514
C         0.37552909007485   13.47147105471520    6.36440340063980
C         3.87822803661767   12.75438596629630    2.94110375723380
C         7.54078535822519    6.25210558055560    3.53978021509640
C         6.49460053997956    7.20138274604838    4.15215788194930
C         6.63661966307576    7.53584178506133    5.50434993981815
H         7.40420585446836    7.01900011628962    6.04931277739890
C         5.87978899224155    8.47840061071394    6.20097166239334
C         6.04670043845611    8.64149167313487    7.72327523076516
C         7.22965407513381    6.04328484365684    2.05552995750562
H         7.96307802178400    5.37471739493843    1.61064506143963
H         7.25144846180294    6.99216463042159    1.52362807077041
H         6.24000797727085    5.61176271410624    1.92800888332565
C         8.92551974371188    6.89666479681719    3.67134012465576
H         9.67222485498475    6.26861261074899    3.18956770593916
H         9.20801813357204    7.02530321859645    4.71282886383229
H         8.93478788680983    7.87381175429412    3.19052948700023
C         7.50923594694818    4.89799894762381    4.25492212994389
H         8.22269011876682    4.21975953597954    3.79114327651503
H         6.51820041152259    4.45454870947317    4.18291030688181
H         7.76658327391702    4.99438930544004    5.30633013617835
C         4.65174082862278    8.45051294141753    8.33566454978612
H         4.68233436679611    8.62858424846247    9.40826391620771
H         4.29568996448692    7.43579808631536    8.16097561571214
H         3.94730659385208    9.14592962605302    7.88474556242843
C         6.52426152354037   10.07687008112771    7.97710424499245
H         7.51709387574327   10.22707533534284    7.55556878621621
H         6.56824732287526   10.27738436048612    9.04530067297979
H         5.83859388531779   10.78486637461377    7.51712097246330
C         7.01717940326481    7.65926076616116    8.37398439990044
H         8.03236950426491    7.80311387459498    8.01063768461168
H         6.71548876725607    6.62953659755089    8.19490124244059
H         7.02285016186993    7.82597840902025    9.44972045710888

