43
CSD_code = VIMHOP | q = 0 | S = 0 | Stoichiometry = C17H19Cl2IrN2O2 | MND = 6
Ir        3.94068117148111   -0.11483633941710   -0.22321721545152
Cl        2.78369245386838    0.36357471141222   -2.21770464295293
Cl        5.08758926582708   -0.56593704900746    1.78440339255937
O         5.56688216019647   -0.74389595310208   -1.31011282876547
O         3.19893716591475   -2.03124620569883   -0.24389714752876
N         4.53140646214518    1.75444161145921   -0.12161581595539
N         2.44634497085306    0.62395267685142    0.81416420890552
C         7.03632848362614   -2.14270614523263   -2.50860201427282
H         7.58444092742358   -1.20874253264420   -2.59704532761139
H         6.78929553462676   -2.51258628287279   -3.50104971481622
H         7.65869817779723   -2.88177513948518   -2.00943199575532
C         5.76757896710638   -1.92193986580667   -1.71542472321094
C         4.94770556878277   -3.03187461964890   -1.50820328323647
H         5.27038858434432   -3.97214399767249   -1.92717735825662
C         3.74388430225844   -3.02289129948593   -0.80263296320405
C         2.99974838304997   -4.33535372888149   -0.69521471521103
H         2.12862298088124   -4.21525002502709   -0.05666483900610
H         3.65235825050133   -5.10115440479817   -0.28253716677806
H         2.67808975516235   -4.65186594337010   -1.68568184309614
C         5.65069072183561    2.23017415293441   -0.65582374144446
H         6.25999165047232    1.51285441396171   -1.18658681488758
C         6.01909567703659    3.55375229956405   -0.54388349492936
H         6.93799560110971    3.89561636517565   -0.99327846332747
C         5.19964630398203    4.44363801038987    0.15193718890314
C         4.03301392476404    3.93609801090048    0.70377191370365
H         3.36951294039268    4.58768236234216    1.24949038716296
C         3.71658695501573    2.58955351170732    0.55662356570502
C         2.52288415656379    1.94246272620391    1.09209557348442
C         1.52775853727387    2.57845886293993    1.82704780903872
H         1.60677787549560    3.63268371210331    2.03911590317840
C         0.43441278158305    1.86131604558007    2.28904687020164
C         0.38510074684362    0.50068442361641    1.98277280434044
H        -0.44321766983156   -0.10403569820823    2.31654462735667
C         1.40226206966816   -0.07228100611248    1.24970915583221
H         1.39783542697623   -1.12213558925814    0.99416768998696
C         5.57744189885880    5.88081074752985    0.29221756318928
H         4.81661075004168    6.43744900655978    0.83204174656763
H         5.71330473166747    6.33061783556700   -0.68988650347328
H         6.52166077120985    5.96719469539824    0.82795263175798
C        -0.65022403839330    2.50557640993839    3.08681247192047
H        -0.48103561485934    3.57353563982012    3.19167547612434
H        -0.69738097774368    2.05927108322368    4.07917295385016
H        -1.61459878581446    2.34625251055103    2.60750867940119

