48
CSD_code = VIMVUL | q = 0 | S = 0 | Stoichiometry = C19H24Br2N2Ru | MND = 9
C         4.97199937315697    3.98680793519561    1.84314891350373
C         4.24895687544755    2.45813920898957   -0.01470736686070
H         3.23758196407877    2.63606287009717    0.34559140996344
H         4.43369283746965    1.38392214636151   -0.06005997905580
H         4.33608538906886    2.88648611028614   -1.01446101425860
C         6.39846598865033    4.98986414934425    3.65116471273382
H         6.93043059883528    5.90054046647055    3.37118516941850
H         6.99754804145929    4.42123446816165    4.36404522498335
H         5.45607127459996    5.27463922117251    4.11425220776421
C         7.13873881684317    3.41320200715870    1.91500539440963
C         6.52987570905325    2.69610665293929    0.87536615175672
C         7.25613325764931    1.82136103614270    0.08126790229737
H         6.79754142953541    1.27786685732783   -0.72890186695192
C         8.60291112946147    1.68865931354599    0.36247418338560
H         9.20359035984682    1.02211378860007   -0.23690682949807
C         9.20782304767249    2.40068844789158    1.39673696392851
H        10.26376216563688    2.26982743816846    1.57623255199481
C         8.49062201678431    3.27504705496217    2.19144046388774
H         8.96707940921466    3.83305971386900    2.98116464751639
C         2.60175360516835    4.88593247098396    4.48476546788995
H         3.09175243628711    5.30521894687000    5.35790254234117
C         2.85459001108870    3.55622352104746    4.11059627752268
C         3.75918898294321    2.67292289509908    4.92066985435099
H         4.40347325240186    3.25950064936931    5.57245451807866
H         4.38142659364429    2.04861614686861    4.27988371234792
H         3.15378890914629    2.01227697570404    5.54423005550001
C         2.12993667879053    3.01378709558263    3.00868349696734
H         2.25034704602157    1.96414035370241    2.75910705418958
C         1.20206273742103    3.80349090971470    2.31712072164043
H         0.62609359236477    3.36792469569102    1.50523699714826
C         0.91769432317045    5.14180309408175    2.71742959923711
C        -0.17773890444694    5.91393344699569    2.02082705007594
H        -0.32002680274415    5.47444388017298    1.02622286555269
C        -1.47634999554805    5.74776258432582    2.81843260146121
H        -1.73997490084497    4.69573380383701    2.91917059513300
H        -2.28978337927044    6.26007207764837    2.31106701708015
H        -1.36893726568460    6.17369577166631    3.81501125669429
C         0.16314416259078    7.39240998473783    1.83394205796199
H         0.16444137133419    7.92757672441170    2.78126116550915
H        -0.57469498544761    7.85696766054513    1.18487766325812
H         1.13902334344357    7.50663261598132    1.36582395769277
C         1.63357068089203    5.66391053338179    3.79651539865183
H         1.43187313714106    6.66835925201405    4.15007061918016
N         5.20280406129398    3.05997240979955    0.87986183710663
N         6.14819416022677    4.17357356114110    2.49250361719074
Br        2.82307303507171    5.38503026755921   -0.16769153629065
Br        4.30219934961513    7.13535574062863    2.35372146739493
Ru        3.19276507946225    4.87480304375485    2.27516322821406

