68
CSD_code = VIMWAS | q = 0 | S = 0 | Stoichiometry = C31H32I2N2Ru | MND = 9
C         8.23467420827181    0.96215825137511   12.08128537356855
C         8.96175297649545    3.27060283919502   12.82356056595224
H         8.49682930457916    4.17174042613885   12.40693422433574
H         9.85549809624657    3.07128929188673   12.22838440940221
C         9.37835448421965    3.53107701279813   14.25129759110681
C         9.03772461592424    2.69579024182088   15.30619019361229
H         8.41717135235568    1.82658184381896   15.13854610342575
C         9.47992782307239    2.96881306548646   16.59032027879103
H         9.20411975350229    2.30942668550761   17.40021893253145
C        10.26964850121824    4.07745007094338   16.83432317616716
H        10.61416046388166    4.28803686466290   17.83534885078546
C        10.61478024827684    4.91633825271492   15.78674451711764
H        11.23054088853053    5.78414720506726   15.96878383153929
C        10.17260547227706    4.64453769792401   14.50597824493318
H        10.44255220483696    5.29736406009973   13.68846127606489
C         6.77102156435755    2.25552896435738   13.20220946473477
C         6.10145990602608    3.27127642833666   13.86832969321587
H         6.56948634134477    4.22059498597668   14.07318015700632
C         4.80262497493823    3.01004532211116   14.26007927083583
H         4.24478791912363    3.77529419474963   14.77733117741089
C         4.19149984176741    1.78425279847872   13.99939242870621
H         3.17251616604044    1.62810874443086   14.31803323805613
C         4.85500380062681    0.76803079675159   13.33885211095438
H         4.37213548207901   -0.17135558014958   13.12467689350731
C         6.16007583003725    1.02354130354530   12.94619855295311
C         6.75359719095409   -1.06450377771949   11.82494725759699
H         6.32769629988146   -1.62382672963851   12.66488822641900
H         7.66563736372821   -1.57304728964133   11.50050314921944
C         5.76547555321078   -0.99813345330988   10.68543926241492
C         5.84116934473343    0.02772951330028    9.75328701198135
H         6.60986987647340    0.78473244247416    9.83796109741291
C         4.94819058401393    0.07628239408812    8.69893477024962
H         5.02335053591560    0.87172303295159    7.97374127840571
C         3.97281780985191   -0.89706811993656    8.56947072408440
H         3.27791851250401   -0.86109891341939    7.74380261042675
C         3.89325414768729   -1.92124519795326    9.49705919143518
H         3.13665677181131   -2.68576273870569    9.39864812698365
C         4.78549075435441   -1.97046237484430   10.55296290600839
H         4.72631574884303   -2.77483451821822   11.27337212538523
C        11.07820905603229   -1.41991782207313   12.07442824146253
H        10.80146010621839   -2.47028196275928   12.04882427681010
C        10.66248747814787   -0.61671921042642   13.14890843864827
C         9.89245075755172   -1.19659329076747   14.30000006727328
H         9.29368922466855   -2.04940035263515   13.98312339742702
H         9.23742827639333   -0.45497209838455   14.75540921067027
H        10.59185861328938   -1.53932280715479   15.06567545322871
C        11.11186454607697    0.73392598911907   13.18149532111348
H        10.88372106717937    1.34996207567256   14.04615234498203
C        11.91492123104443    1.24082827990860   12.15272618841192
H        12.28209048595921    2.26225193756031   12.21592652053955
C        12.39035927947518    0.40519213371114   11.09925589481768
C        13.38751696708084    0.95271367886114   10.10599407237086
H        13.23526213939425    2.03678563047104   10.03352056911463
C        14.79859019120701    0.69841526797967   10.64948560036613
H        14.92821820130843    1.15476109256813   11.63014141574891
H        15.53653535008223    1.12096210257739    9.97236813491537
H        14.98481835803425   -0.37096880180470   10.73899632785606
C        13.23067231598130    0.36102645566518    8.70575784928789
H        13.53345509416335   -0.68374551547339    8.67599875523382
H        13.85425368139144    0.91178085032351    8.00624649082895
H        12.20006441317244    0.43626557067456    8.36479257097421
C        11.97216636023058   -0.92218858364329   11.08958058525644
H        12.33698499917350   -1.60478333130209   10.33120918203104
N         8.04124179480122    2.17382804070033   12.67449463826353
N         7.09611166404455    0.25715704344702   12.28667721158011
Ru       10.01577089149296    0.38829492036712   11.22805148764743
I         9.82821365591778    2.48106810126447    9.48362245915444
I         9.14079108650521   -1.21438143191495    9.18865899921693

