101
CSD_code = VIMZUN | q = 0 | S = 0 | Stoichiometry = C55H37N7OZn | MND = 5
Zn       -0.77653649554227    6.99943902814967   18.31415047036037
N        -1.57924140824812    5.73633237008529   19.69572853824361
C        -2.79312254444515    5.13466059659508   19.62233349659031
C        -2.94155973190957    4.19854596779371   20.70448200945047
H        -3.81005617073056    3.59640260366567   20.88877123564425
C        -1.79468978379852    4.24645278629169   21.42044729093483
H        -1.53610301495213    3.67667194866182   22.29179577778764
C        -0.95339792102740    5.22630247002318   20.78687221928076
C        -3.78189772540173    5.39723756403629   18.67433931206741
C        -5.05711620788175    4.65475561363060   18.79303982922600
C        -5.09840255630997    3.28061915615720   18.57961960365306
H        -4.18831068361341    2.75938081091737   18.31854870015953
C        -6.29123132821011    2.58917940668119   18.69107077631653
H        -6.31190386684081    1.52242692711595   18.51989338690143
C        -7.45662287820229    3.26027649023415   19.02151203210799
H        -8.38724018253524    2.71925048880588   19.11056250526167
C        -7.42385442519112    4.62774815785798   19.23807941882022
H        -8.32988050586930    5.15552286483972   19.49877940580581
C        -6.23298352519536    5.32156315880315   19.12261640516283
H        -6.20375616206802    6.38753533493347   19.29637685454966
C        -3.66537740804115    6.31589059945159   17.63134964314017
N        -2.57207870964735    7.06893311475419   17.35055020407155
C        -2.87007796929573    7.79691534298497   16.24451282523851
C        -4.20870743029776    7.50083238111613   15.80927336788100
H        -4.70276054401662    7.95173682107884   14.97044918429817
C        -4.69916587003263    6.57497070664477   16.66527932933036
H        -5.66423620423612    6.10674392821765   16.64884735390558
C        -2.02301554840605    8.70821429582032   15.61178544698760
C        -2.52106006627292    9.37196603094359   14.38741851946057
C        -2.81175434717133    8.62960151650862   13.24662108210986
H        -2.66609532452897    7.55833956773493   13.26060580722697
C        -3.27584107378451    9.25274884979151   12.10241218231032
H        -3.49566211862199    8.66565740906440   11.22216127180610
C        -3.45974732049887   10.62511649016082   12.08323017839553
H        -3.82473213672559   11.11076292581385   11.19019480149529
C        -3.17491622480930   11.37181209282096   13.21437937525692
H        -3.31975237448688   12.44242996431431   13.20552199956986
C        -2.70646348832192   10.75094927355050   14.35776171194382
H        -2.49002145580232   11.33050102903738   15.24339798264768
C        -0.73921185059623    9.03934826607655   16.04948109965042
N        -0.12801903576637    8.55795644749873   17.16161846441225
C         1.09974718486616    9.13289247797815   17.21482582097290
C         1.28791345046841    9.99093407999857   16.07599713392876
H         2.17991436878595   10.54584961026959   15.85812434993871
C         0.14649564404018    9.93200296485075   15.35156276143503
H        -0.07572963515824   10.43022202878055   14.42761601441234
C         2.06084537972793    8.92507089519153   18.20487832836734
C         3.31825326814665    9.69759476632849   18.11205185174848
C         4.53650280236112    9.04748987768059   17.93811064957327
H         4.55319382493096    7.96935041758501   17.86324745448920
C         5.71204018030138    9.77092241591316   17.85108803023079
H         6.65136894073242    9.25507389889939   17.71228335339661
C         5.68752737891995   11.15259006537492   17.94218475935111
H         6.60635205617800   11.71667523851456   17.87716504057239
C         4.48011003765006   11.80780620705005   18.11812135884725
H         4.45609801645181   12.88536561901502   18.19329331006316
C         3.30298927864114   11.08654287960637   18.19968531759485
H         2.36083405098968   11.59519113280688   18.34402965307151
C         1.92054545942004    8.04801523792841   19.28070226688993
N         0.86848745537831    7.22060815203904   19.50204519825476
C         1.13684087279692    6.54233962729220   20.64646013692006
C         2.39864392880766    6.97240345859908   21.18674606222082
H         2.83501186785706    6.61732590836560   22.10021405016613
C         2.88475959630667    7.90814215107770   20.33914766613093
H         3.79549960432447    8.46836552684798   20.42616853565269
C         0.31429648928345    5.58714263410959   21.24576796450173
C         0.82042886938008    4.92253906108238   22.46680672746917
C         1.94740010164253    4.10808265368014   22.40955794413956
H         2.44709161236380    3.96075020135683   21.46248333343672
C         2.42132095173558    3.48475472169972   23.54961699601388
H         3.29474026411755    2.85136493564898   23.49166281824051
C         1.77961147153842    3.67121296415335   24.76246800183522
H         2.15141606278542    3.18590169036088   25.65288812017227
C         0.66011451812668    4.48386311120455   24.82943260484497
H         0.15837210319096    4.63588503012540   25.77416199028540
C         0.18156844523245    5.10389140818085   23.68964276827309
H        -0.68706403082753    5.74430208479965   23.74102870988470
N         0.12529429958152    5.47049789205144   17.05955853328722
C         0.06642896180407    5.55253552196768   15.73668371110059
H        -0.55017102552102    6.34407086676827   15.33720278340914
C         0.74395660314463    4.69318471894689   14.89638420833275
H         0.66419005182725    4.80388799697069   13.82490663319363
C         1.53516594014571    3.68360849496768   15.45059291589251
C         1.59009972484741    3.59552336674182   16.84146811013009
H         2.18092490222420    2.83282334902105   17.31905272672202
C         0.86991277179702    4.50843465492643   17.58863111147079
H         0.88926085304086    4.46856874656269   18.66765633693532
N         2.22154456596748    2.83424676462223   14.59624701606872
H         2.08239384014942    3.01940612070978   13.61139445496876
C         3.02016428333941    1.76434164055257   14.91794173505396
O         3.22780052007737    1.37982716466351   16.04502476194826
C         3.61086014802246    1.08479645676238   13.72423805055539
C         3.99831571214777    1.75943099950337   12.56900748853747
H         3.90392276532351    2.83155476805144   12.47563296115582
C         4.56211353492209    1.02223771353023   11.53798849178290
H         4.88370741843183    1.50304658817525   10.62359294051217
N         4.74420173981074   -0.28457928794206   11.59033033091060
C         4.38832682032175   -0.92289881362388   12.69127703640808
H         4.56627616277927   -1.98971549313514   12.69206914625978
C         3.82675178950229   -0.28924680207975   13.78848700602941
H         3.55591936416559   -0.83157936175069   14.68049332657016

