56
CSD_code = VIMZEY | q = 1 | S = 0 | Stoichiometry = C27H18N7NiO3(1+) | MND = 6
Ni        5.93766467302768   -1.68934413766265    9.38962297423656
O         0.43743861874768   -1.90739095971174    9.83867164989009
O         2.12055640309600   -2.71093855915924    8.74286993258592
O         4.69095393142137   -2.75453721077869    7.60211097510929
N         1.57986869373639   -2.30873060281781    9.78261174066048
N         1.64228096112659   -1.17308403160376   13.10319092312661
N         4.81441235605096   -2.77671358633240   10.46991193528844
N         7.27144645659075   -3.06000761498606    9.35571226638891
N         7.09309252103787   -0.73225070554511    8.12089644066535
N         6.53184515346850   -0.60707767094790   11.38250392103016
N         4.63825986305663   -0.26949552432511    9.46402194639609
C         2.38317550050825   -2.25976673551133   10.92411898140660
C         1.93486805738814   -1.69411323212401   12.12384382415484
C         3.69917318442448   -2.55577550015193   10.74392714996782
C         7.33838723982718   -4.20766348728409   10.00350663086298
H         6.52360537867805   -4.44813461316862   10.67295109317511
C         8.40469898689617   -5.09988349202525    9.84589705455896
H         8.40243287209860   -6.02354222236313   10.40193769125805
C         9.43229829588093   -4.79396953769570    8.98611122723104
H        10.26273730038766   -5.46822763133679    8.84210420552305
C         9.38927326250269   -3.57606055186219    8.28641611382056
C        10.39463608963324   -3.14678425335211    7.37106596110937
H        11.23855919641190   -3.79778310776144    7.20246495684661
C        10.29834972861909   -1.95676059180217    6.72796581799822
H        11.06365519950917   -1.64088337120172    6.03588477836706
C         9.19010815352459   -1.08641967571846    6.94476845591709
C         9.03595234244986    0.15962444017072    6.31478817941756
H         9.78148145121997    0.50659615109299    5.61566500446901
C         7.92635562914169    0.91507627440637    6.60859648653993
H         7.77137115290264    1.87695644463224    6.14700885173603
C         6.97857431882093    0.43448977162506    7.51852976020593
H         6.11003846852010    1.03624040499496    7.74738838797675
C         8.17906106681804   -1.48503641409389    7.84297802337730
C         8.27771403668059   -2.73903199553686    8.51417447099793
C         7.44318537313415   -0.79098827445673   12.31171364308496
H         8.29936218296450   -1.39183094011678   12.03361209862058
C         7.34668149759692   -0.25432881323967   13.60061326313236
H         8.12664355472830   -0.44508019233774   14.32000296403028
C         6.25092158809227    0.50687816430631   13.92552663749906
H         6.13716510526592    0.93465028243941   14.91015326444422
C         5.25907512888143    0.72985402735320   12.95389229516475
C         4.08785799183087    1.50040728598800   13.20233776107419
H         3.95311866947477    1.92238481931177   14.18601057632432
C         3.16197117282040    1.69317478319883   12.23282360705145
H         2.27192937440873    2.27169468067253   12.42317982918130
C         3.32421538788123    1.12465908027346   10.93713469835838
C         2.37747589100828    1.28940232279401    9.91172269618333
H         1.47943749013367    1.85701199398676   10.10104628344929
C         2.61006690827356    0.71448273915581    8.68555771770307
H         1.91086826879015    0.82444666293094    7.87275809638228
C         3.75640145606661   -0.06274537174211    8.50225234700596
H         3.94101863744964   -0.54572561334205    7.55162836802657
C         4.46260816649302    0.33318873795619   10.66170604435670
C         5.45151525572202    0.14219157663483   11.68549696382565
H         4.93708808653499   -3.64824044728420    7.35069094349439
H         3.75696626824880   -2.81146397454052    7.87962208930388

