87
CSD_code = VINBUP | q = 0 | S = 0 | Stoichiometry = C42H32As2ClN3O6Pd | MND = 4
Pd        1.64026475342557    1.91351223600936    3.10715316646965
As       -0.36308031438341    3.09005259646047    2.99364773638053
As        3.42799471459831    0.42623508510197    3.06260674425339
Cl        0.42991254523911    0.17115047755820    2.24628824887974
O         1.98359159581173    1.52605322843507    5.68341732237340
O         3.39997830153818    2.26948888353714    7.11613222854455
O         5.23255299649779    6.61147372390497    6.62853220506171
O         5.25538972166736    7.55375247960864    4.69426527257384
O         2.75075624810488    5.67816520221602    1.13093269336326
O         2.20267016113104    3.60221795000341    1.17117330967014
N         2.81603424095544    2.34657843958626    6.05500788098864
N         4.94819976441632    6.65744357006640    5.45076984168336
N         2.64705692885622    4.61344894972950    1.70424997305923
C         2.67809623054863    3.40377281327366    3.84174833342339
C         3.11228833329854    3.44642181839900    5.18789512282646
C         3.84623934936047    4.49085665699404    5.72236988232405
C         4.18584801787459    5.56426751917416    4.90934264247551
C         3.79358861305192    5.58795385308326    3.57733595375539
C         3.05958277515074    4.52869516929254    3.07264427725939
C        -0.21241154920548    5.03016538766712    3.12520982903571
C         0.23438512083902    5.56193952273877    4.33333278258692
C         0.53054997341909    6.90733857137662    4.44125273150543
C         0.39528802623984    7.73317057467075    3.33546811391301
C        -0.04968569776171    7.21451397791599    2.13143196040198
C        -0.35069793822208    5.86648600512880    2.02370498976571
C        -1.46932420930409    2.82394711045380    1.42448242850429
C        -0.82573848112942    2.71032309006910    0.19649853422749
C        -1.56261934138006    2.49984206722228   -0.95482248405315
C        -2.94233608334833    2.39387726672673   -0.88305472845118
C        -3.58496379162347    2.49543339494172    0.33947350943080
C        -2.85193578393173    2.70861496919445    1.49510620256577
C        -1.48229986885336    2.66756867343181    4.51468772791984
C        -2.53192225840023    3.48963825480250    4.91532374244617
C        -3.29446364208867    3.14727382361397    6.01796192387139
C        -3.01058280605677    1.98900838516573    6.72500883095549
C        -1.96082701742179    1.17380041022845    6.33569067532952
C        -1.19566779049654    1.51259006516292    5.23280249875547
C         4.97696688075162    0.92739896792361    4.13655759943739
C         5.27160550709923    0.31952076912191    5.35142279718706
C         6.26808807708090    0.83527440788265    6.16397695504173
C         6.97122738732562    1.96162665480243    5.77174344801281
C         6.68830892668324    2.57099807780748    4.55864250636079
C         5.69165636780115    2.05945951950059    3.74969303421818
C         4.18221432842464    0.32694945056127    1.28334601397918
C         3.40607030006121    0.77892478381389    0.22242822167515
C         3.90262295568741    0.73337336943521   -1.06894371258626
C         5.17595052153052    0.24102245052291   -1.30245172309889
C         5.95880944755221   -0.19949727116504   -0.24642435680413
C         5.46590624427333   -0.15640510003761    1.04576963165314
C         3.07621766896373   -1.40299823573199    3.59774083944065
C         3.61656205870393   -2.49518392597140    2.93082408355876
C         3.30760552481138   -3.77887153022258    3.34936436020455
C         2.46054594879714   -3.97429858092153    4.42734443412067
C         1.91337668079830   -2.88643939152838    5.08854615885239
C         2.21628226889971   -1.60267479104151    4.67273764094533
H         4.15006649513729    4.47266293367852    6.75970925898713
H         4.05904147739469    6.42149458920390    2.94218562066514
H         0.34263710627079    4.89972642798643    5.19079577180215
H         0.87498427514667    7.31205270323015    5.38206269314858
H         0.64289114670974    8.78077821910966    3.41392791406593
H        -0.14935156069634    7.85733062139557    1.27006680428926
H        -0.68610632378151    5.44971756235508    1.07870755134521
H         0.25895056665045    2.77522776979779    0.15762054788803
H        -1.06225282734136    2.40968572999187   -1.90802870360434
H        -3.51771523497462    2.22218533106972   -1.78087950501149
H        -4.65988064185763    2.40092724786109    0.39516531900055
H        -3.34977042355635    2.77123756882906    2.45778781003220
H        -2.73451983634451    4.40394054983972    4.36295100171168
H        -4.10914747254307    3.78525712791434    6.32896643988617
H        -3.60776221550808    1.72628305655379    7.58582670954041
H        -1.73613375137323    0.27699849305012    6.89391737023593
H        -0.36351790816274    0.88214801739572    4.92049196159765
H         4.70611896107100   -0.55495721276367    5.65927535896143
H         6.48619385640789    0.36480279426653    7.11067813210105
H         7.73766873240529    2.37020103408464    6.41249268537277
H         7.23886400369999    3.44818923906589    4.25050987252602
H         5.45294009046689    2.53126882039161    2.79788089014037
H         2.40820218866689    1.16999544226302    0.41941870716167
H         3.29885626928196    1.08517018452554   -1.89244347930835
H         5.56437201949596    0.20456059674765   -2.30959849178851
H         6.95529257003981   -0.57429771324055   -0.43099179329615
H         6.07627562632430   -0.48439855353383    1.88362081720846
H         4.26642088640077   -2.33727164685046    2.07568985103956
H         3.72378667140755   -4.62861353140902    2.82778642725828
H         2.21880009629437   -4.97732598314558    4.74692408264828
H         1.24406841595057   -3.04073563210100    5.92231022002059
H         1.77759780750183   -0.74049361498450    5.16898211820666

