129
CSD_code = VINBIE | q = 1 | S = 0 | Stoichiometry = C66H48MnN12O2(1+) | MND = 6
Mn        6.43597688922689    0.00001780353170   -0.00056098360685
N         6.45631146844074   -1.36358401080700    1.48485328026216
C         5.46235579707278   -2.25099268484034    1.80880054356258
C         5.86156288117637   -3.04638306955151    2.93064809724425
H         5.27153161485772   -3.82091686734369    3.37720021620140
C         7.09244930456901   -2.61730149380613    3.29824390028135
H         7.69516977725913   -2.96439934543026    4.11357705636736
C         7.46512799443945   -1.57996035807326    2.38351167847645
C         8.68708875270700   -0.90865004782094    2.42285662072648
C         9.65558325533972   -1.28878428213276    3.47456158329825
C        10.22275528386017   -2.55929886319910    3.48977153459274
H         9.95750890271973   -3.26731039807469    2.71765900630878
C        11.12902971073574   -2.90837221865966    4.47462176036064
H        11.56723077805460   -3.89517678530466    4.47445044718165
C        11.47348038446079   -1.99678469794822    5.45869606779222
H        12.17804580758026   -2.27165692104433    6.22863570370251
C        10.91107933124316   -0.73122105421577    5.45155755498787
H        11.17499914577462   -0.01774805630560    6.21787081405595
C        10.01052844553529   -0.37655191030979    4.46358903871612
H         9.56631511539205    0.60863166724132    4.45890574331974
C         9.05394590269566    0.10137780060951    1.53295114832750
C        10.33103420467969    0.75147427369439    1.54605259979510
H        11.13197671556466    0.51916871950109    2.21946093791210
C        10.31517209026315    1.67185251692875    0.55265900765080
H        11.10086665945640    2.33703503102127    0.25405884110931
C         9.02885613417928    1.58634662765247   -0.07406511519597
N         8.28245230437241    0.60795878869222    0.52336838351618
C         4.23852719971819   -2.38701364370046    1.14783595902318
C         3.31057914582417   -3.44622952016722    1.59911909374617
C         2.97039532191345   -4.49089648857466    0.74421698900093
H         3.38843361999127   -4.52242652669841   -0.25248802145410
C         2.11449044502674   -5.48996258518128    1.17110559959018
H         1.86076613374188   -6.29949243250553    0.50291439112020
C         1.58639735784619   -5.45563559970008    2.45129857861990
H         0.92065308352172   -6.23823835524113    2.78192526809088
C         1.91559908242927   -4.41542933784819    3.30460562414283
H         1.51211322762967   -4.38344205294608    4.30586581556657
C         2.77250195553556   -3.41586084026079    2.88162040415576
H         3.02759056135848   -2.59893901360394    3.53700340190960
N         5.64543907876724    1.42134449788228    1.31270256261986
C         6.00074787452699    2.70981349992923    1.25122089815018
H         6.66797599545415    3.00741822430054    0.45532709587975
C         5.54260180769736    3.65703295850447    2.15129841212222
H         5.84746470684175    4.68578008107647    2.04535531130676
C         4.70909041048205    3.27295757864894    3.18275588620118
H         4.34808542839998    3.99209969446357    3.90318413875972
C         4.34946823818304    1.92771169129389    3.27411278631563
C         4.82339428660529    1.05021209448997    2.29521587113441
H         4.52827380258890    0.01292531928225    2.33896116029658
N         3.52414809250875    1.50804096512849    4.30574807882228
C         3.40155365441452    0.20052469733773    4.76878595097572
O         3.99732423998263   -0.72756580225801    4.27613465590658
N         2.54100239646692    0.10484013380002    5.82260874175855
C         2.16738098809327   -1.07243679221705    6.48945604249787
C         1.03113757053525   -1.04655262737180    7.29528776321709
H         0.45844462843103   -0.13471616932368    7.40116349383359
C         0.64865642580921   -2.19987558522270    7.95481203436477
H        -0.22562666804937   -2.21024801804271    8.58576463489911
C         1.41802610543578   -3.34207242774719    7.78209263905424
H         1.16006380835522   -4.27309079925863    8.26677180373887
N         2.50474516196040   -3.36665736716823    7.03218701699472
C         2.88132248184697   -2.26941093079545    6.40735286328210
H         3.78512928215709   -2.34486615132882    5.82303150393840
H         3.14632258838414    2.25125521048702    4.87743099714676
H         2.00523440010917    0.92055324668005    6.08795224511139
N         6.41556846386226    1.36366615675197   -1.48571604238189
C         7.41012839410309    2.25007159079923   -1.81060761459168
C         7.01037917111663    3.04634513510870   -2.93163931892189
H         7.60079058793470    3.82025921361827   -3.37875925925898
C         5.77836154381434    2.61909194394674   -3.29756272650686
H         5.17486338263964    2.96739094755208   -4.11180697464666
C         5.40571185166694    1.58175846188072   -2.38280858060218
C         4.18334250721770    0.91116025685199   -2.42148596693863
C         3.21427481077587    1.29238429646466   -3.47227625881353
C         2.64741476327454    2.56305383400849   -3.48602766298904
H         2.91333086787895    3.27033609752800   -2.71347588277336
C         1.74062392606405    2.91320700240232   -4.47002069316386
H         1.30265654478507    3.90011491359839   -4.46871298248851
C         1.39536633827694    2.00257614547889   -5.45469810428648
H         0.69040261446344    2.27829862205569   -6.22396910148063
C         1.95747991205249    0.73687823137075   -5.44902864122542
H         1.69294543491869    0.02415265165458   -6.21582469255290
C         2.85854692651788    0.38112718468793   -4.46192032754622
H         3.30257738512069   -0.60414129951569   -4.45841792147682
C         3.81707286813176   -0.09985152573738   -1.53245852076990
C         2.54023358754989   -0.75042725098421   -1.54584841226398
H         1.73872991435841   -0.51721931193773   -2.21827746955071
C         2.55718291748699   -1.67265282842820   -0.55418949642730
H         1.77199831794678   -2.33876431137122   -0.25632184270424
C         3.84380263738255   -1.58757515103464    0.07198043542133
N         4.58947060533426   -0.60793824053414   -0.52432323529974
C         8.63439882806993    2.38538157516479   -1.15031923341603
C         9.56242838055964    3.44444769141504   -1.60179370377142
C         9.90309962654763    4.48897664971756   -0.74691241563868
H         9.48538396420414    4.52050989118516    0.24992793312380
C        10.75906681612287    5.48791214925425   -1.17397690062469
H        11.01316628953145    6.29732677574159   -0.50578857741868
C        11.28671428562704    5.45361965582971   -2.45435448786658
H        11.95247429237788    6.23614306923856   -2.78513748098231
C        10.95697620595985    4.41359190310481   -3.30767099924620
H        11.36006356990584    4.38165401875261   -4.30909399003369
C        10.10000194352751    3.41415997600055   -2.88450597340898
H         9.84445594556414    2.59741516432165   -3.53992256941914
N         7.22671179882867   -1.42161012122815   -1.31376092830858
C         6.87192920960477   -2.71019855556941   -1.25170038567212
H         6.20451941315846   -3.00765079743512   -0.45591732669903
C         7.33084462898071   -3.65776722687666   -2.15102064693894
H         7.02632392839904   -4.68656782436650   -2.04461368665790
C         8.16475047853736   -3.27398938047138   -3.18226010182629
H         8.52644892048427   -3.99341662807414   -3.90205711063583
C         8.52382167724786   -1.92864494759594   -3.27425987450621
C         8.04894337251505   -1.05070628703147   -2.29620822810173
H         8.34347900257262   -0.01328163163826   -2.34058645907062
N         9.34966306789891   -1.50933773595244   -4.30562049394368
C         9.47210998412268   -0.20209556114244   -4.76945597517885
O         8.87515521286191    0.72600403046882   -4.27826470395940
N        10.33407131689077   -0.10671063960101   -5.82216144178607
C        10.70829276476246    1.07032088909167   -6.48910301378649
C        11.84588378140380    1.04444336823224   -7.29303315402838
H        12.41911926901334    0.13277940909680   -7.39744568904170
C        12.22896984876501    2.19753661956676   -7.95260733750407
H        13.10432432500110    2.20792317331967   -8.58207347949481
C        11.45883705542956    3.33951015879148   -7.78183148701422
H        11.71730066546093    4.27039809980499   -8.26649616595840
N        10.37086854610935    3.36407790538071   -7.03373945553958
C         9.99370344054976    2.26703479508222   -6.40890150754279
H         9.08884588715626    2.34243062853019   -5.82620023523369
H         9.72828876774072   -2.25279109086892   -4.87646098383401
H        10.87061864141049   -0.92235292708951   -6.08614759478448

