36
CSD_code = VINGUV | q = -1 | S = 0 | Stoichiometry = C10H13N2O10Ti(1-) | MND = 7
Ti        2.65566080389910    0.30595364048503    6.09012918280185
O         3.28296168068677    1.59518601761363    7.10680792636742
O         1.98613462663593    1.22946179529578    7.41612223745027
O         0.96781024037164   -0.65471875107646    6.02200142304595
O        -0.18834521585789   -2.48436671172189    5.49606457240408
O         2.28352910564704    1.38168971115227    4.57806379035526
O         2.59408129382575    1.67623127977589    2.39505718044928
O         3.56044945825669   -1.09496976467808    6.95475660733072
O         5.46921856542947   -2.12635399373723    7.43250620930849
O         6.75020342018312    3.64529899774309    4.67619353142317
H         7.67541553857269    3.84942913050836    4.46668147728980
O         7.46698636735014    1.54944750018504    4.49574719922127
C         4.26677082789280   -1.51379980835461    4.04852671556230
H         4.36077940173891   -2.02441296605675    3.07248208547660
H         4.66022197097979   -2.18470687598423    4.81728319087382
C         5.08936662589054   -0.22380207592168    4.02256428867596
H         6.15670366789317   -0.47021739915817    3.92190114245766
H         4.79400456895972    0.37360454077769    3.15514122925089
C         2.11310681302314   -2.35734742676849    4.81256234287299
H         2.67944013535679   -2.90997434573125    5.56877948794844
H         1.84137622112068   -3.04270868080646    3.99419969582122
C         0.82526364453233   -1.80612290812487    5.51342160502914
C         2.21321845916085   -0.55427449609507    3.22780020978731
H         1.13725327957843   -0.75569632634653    3.26529872315353
H         2.60068643339330   -0.89469991891476    2.25475899294460
C         2.37561297328812    0.98064078240918    3.37615248515919
C         5.58149119988497    0.02957650853077    6.37832823772529
H         5.59865416218897    0.78607880287632    7.16951218637461
H         6.60992254605657   -0.25993088675324    6.11927315950513
C         4.82979156195714   -1.18738897750080    6.98878872760611
C         5.12369234182695    1.98035754836736    5.01688754467041
H         4.80455016043110    2.53523961682448    5.90721380792621
H         4.50752300632393    2.35683515277360    4.19021085758389
C         6.56279015542002    2.31669712298174    4.70555522906723
N         2.87684166658826   -1.20548754037589    4.35492320375212
N         4.84373229151240    0.56355170580746    5.23390351332763

