30
CSD_code = VINGEF | q = -1 | S = 0 | Stoichiometry = C8H11N2O8Ti(1-) | MND = 7
Ti       -1.28992855535994    3.57064809830809    0.44389010877760
O         0.10625375866931    3.26681291102068   -0.56288453908217
O        -0.63585329036132    4.35302964825592   -0.98536551662003
O        -0.75296645724861    2.06277231822159    1.53981668309852
O        -0.74626992753106    1.01533473573973    3.50536801377915
O        -2.69472004387890    2.67004471956698   -0.47276739133956
O        -4.82661576660276    2.03038623950807   -0.56459923358208
O        -0.63927829967101    4.82101148785626    1.71662222710019
O        -0.70130698951564    6.87452843751148    2.57307886548148
C        -3.66093293218407    4.61287771692492    2.28551502161664
H        -3.04311365232306    5.30083977953033    2.87027594449354
H        -4.60353814034583    4.44234560043579    2.83688552594109
C        -3.96252494741270    5.24496708629702    0.92162936909229
H        -4.67746646303049    4.62010817777563    0.37777008271997
H        -4.41267142725750    6.24233221590232    1.06973445418370
C        -2.17205186712436    2.93372710450120    3.24684301955196
H        -2.80977714480196    2.48241459931644    4.02344070681294
H        -1.61882658300225    3.77228835286001    3.68083050313737
C        -1.11260176176452    1.89426483959961    2.74311882216118
C        -3.79407010116813    2.30894084951758    1.59100337394206
H        -4.82008939184843    2.38699806730334    1.98406490058714
H        -3.38568545390252    1.33502338663258    1.88058219997918
C        -3.80564995730257    2.32453085007228    0.03687990665808
C        -1.87834300041099    6.45359311887576    0.51539149662191
H        -2.45549202901266    7.35811675427300    0.76516163185621
H        -1.19591278077167    6.66297361566110   -0.31399538460317
C        -0.98196055830368    6.04530120528497    1.72325056863563
N        -2.92446290135015    3.37417914770772    2.08192781784683
N        -2.72688738431572    5.32463729436992    0.15730994747151
H        -2.91185595086695    5.31757164116970   -0.84317912631911

