44
CSD_code = VINHUW | q = 0 | S = 0 | Stoichiometry = C17H18MoN2O4S2 | MND = 6
Mo        1.06219262997503    9.77310910701221    9.84818503857322
O         0.30964102262447   10.87105973165232    8.88959068342544
O         0.10713463789475    8.80852392430575   10.77015371506980
O         2.84136767788177    8.16038749526355   11.04592848192567
H         2.54548962409541    8.49849061501844   11.90257637023938
C         2.54144444057156    6.76800572349314   11.02535017439719
H         2.91598872718967    6.37103239211425   10.08218202154099
H         1.46232123565819    6.60245424990876   11.08388298167097
H         3.04429522920356    6.26345641868665   11.85536187553098
S         1.18335153776741    7.93022085220130    8.24721189564543
C         2.76875758363454    8.26150534305486    7.62294312506860
S         3.37988999231813    7.12371692761115    6.46931165153569
C         5.03520073557392    7.86581019951111    6.10109377040631
H         4.84177938774643    8.84772290018134    5.67400763530213
H         5.54209410686804    7.96504084300258    7.05890758115518
C         5.78190741489624    6.97951951919197    5.16008081699846
C         5.67750521727126    7.16135700516126    3.78645249395554
H         5.05611654083316    7.95577207278604    3.40017475466983
C         6.36183970921469    6.33235224464265    2.91601066647770
H         6.27542909648054    6.48352226538636    1.85033488090453
C         7.15406780013253    5.30948893891720    3.40912301296307
H         7.68760971043552    4.66200681688166    2.72950438437502
C         7.25798482632150    5.11763459311003    4.77648895118070
H         7.87222218150184    4.31914767269039    5.16541310779010
C         6.57416268138932    5.94665563098349    5.64694194377043
H         6.65259541140094    5.79359574491369    6.71329235070373
N         3.50478428630314    9.26226662575339    7.95520088843427
N         3.00461173010253   10.13892145500681    8.86596610783509
C         4.86001229851087   11.51171038007573    8.10333353232897
H         5.31694196312672   10.55978227152552    7.84450779622033
H         5.58171842815952   12.14281301638659    8.61288334534452
H         4.55277794675946   11.99734987549391    7.17723288320916
C         3.65708673833343   11.26564931009179    8.96425489845236
C         3.23663996513029   12.29369708809287    9.89103442589332
C         3.66130775027468   13.62386369973505    9.75147342708958
H         4.26605704500056   13.90309918936418    8.90316656128133
C         3.28472814425327   14.59303820844583   10.65376492612390
H         3.60992567809348   15.61231344159771   10.51456587553343
C         2.48338460191760   14.26165301141243   11.74160087867885
H         2.19263557320916   15.02218273095502   12.45024562197406
C         2.05080954953569   12.96478933175467   11.91141824737963
H         1.41335239506267   12.68181243396557   12.73802569893840
C         2.39814197745203   11.97266703468735   10.98667196266524
O         1.97019476994898   10.73750166796948   11.16154855736193

