47
CSD_code = VINJAE | q = 0 | S = 0 | Stoichiometry = C19H18MoN4O3S2 | MND = 6
Mo        3.16213282107360    1.55181027629278    8.98608811476215
S         2.35701935105718    2.51431504192784    6.84579854302534
S         0.79292122998317    4.95288276248667    6.40816859796435
O         2.96386162250693    1.33409830909191   10.86180616548146
O         4.68701619957509    2.15028588957678    8.86708479176099
O         3.01400223997112    0.03866502922071    8.35971688197709
N         1.80692585740153    4.36630898670525    8.73536173141297
N         2.52901194579731    3.58278830291057    9.58848425388668
N         0.83795685889331    1.38400915353656    9.25708223559192
N        -1.04986612655382    0.81334386080098   10.20869593064955
H        -1.76411992040042    0.69859291078772   10.91023568813426
C         1.68775474003715    3.96372139584825    7.51920437935707
C         0.43645473936224    6.42849869035951    7.46860906335749
H        -0.20338958143225    6.08147566039146    8.27799313296752
H         1.39742459092752    6.75209684985058    7.86258816012586
C        -0.21916340241387    7.48916355194559    6.64838743492662
C         0.54219146986987    8.48044567541601    6.04130148063377
H         1.61408582098003    8.48314918240160    6.17250519078973
C        -0.06320061989071    9.45864017685266    5.27342083102320
H         0.53787490911407   10.22601459401028    4.80921628390780
C        -1.43673880512334    9.45399237270047    5.09926968781384
H        -1.90935604348341   10.21721541028023    4.49924357235539
C        -2.20187799632181    8.46556018539072    5.69472432990830
H        -3.27302977179281    8.45528511591638    5.55774027675849
C        -1.59653143723091    7.48811543273550    6.46339690507233
H        -2.19376027373322    6.71408057487477    6.92234486386987
C         2.95820547342964    4.17119846459324   10.66670818960956
C         2.65497417037004    5.62208697730948   10.90692249882995
H         3.46077338765352    6.23461264777131   10.50336135081634
H         2.54964480243851    5.82973301913163   11.96770888118272
H         1.73958875916479    5.88713257468722   10.38293036835060
C         3.74060630264496    3.44354174031328   11.64524631555846
C         4.54313388209737    4.12203253137054   12.57405239594802
H         4.60914505417822    5.19801294724971   12.53319121278880
C         5.29010018725399    3.44280582089704   13.51039463769732
H         5.91369542880790    3.98965050480068   14.20069156671590
C         5.24863933273604    2.05355168247188   13.55893878480686
H         5.83624080624662    1.52050119970956   14.29129797178698
C         4.46586584414527    1.35502581872524   12.66676496919363
H         4.42785329868776    0.27404792854782   12.66989258997316
C         3.71798830706886    2.02540553021724   11.68902863436041
C         0.07887387411802    0.70843467532142    8.34815867572982
H         0.43683884218047    0.52710218502253    7.35305268823878
C        -1.10010224960656    0.34667941706079    8.92645605439630
H        -1.94238017055474   -0.18868850705058    8.54137327811810
C         0.13566755858769    1.42878371198091   10.36484618893712
H         0.45084669018173    1.89309373761781   11.28151421955535

