56
CSD_code = VINJUY | q = 1 | S = 0 | Stoichiometry = C22H27N3O3Re(1+) | MND = 6
Re       -4.40875388407891    2.08298839573805   11.46195914144647
O        -4.72919289878166    0.28734791274589   10.54763835310359
O        -2.73317197366716    1.44514407533565   11.86377245697116
O        -5.85828709120963    2.81280475078009   11.12939983566639
N        -3.57950833009043    2.86756885320616    9.63073704187948
N        -4.90287033699405    1.12251893612856   13.28769031300968
N        -3.96945095673880    3.93128953663101   12.77605833816536
H        -3.12731412321018    3.67629439972540   13.29556375757655
C        -4.07240100056752   -0.11933261337648    9.50215667268159
C        -3.97905649659667   -1.51955221658404    9.33893107765473
H        -4.46944432135994   -2.12881559727182   10.08219417948186
C        -3.28610623412301   -2.08254954154033    8.29985116161002
H        -3.22491870397239   -3.15605334113095    8.21061651405386
C        -2.65266919856300   -1.26430058785079    7.36678582630837
H        -2.08088935262212   -1.69843524241694    6.56236390660006
C        -2.76674126333529    0.09945654909309    7.47133361394734
H        -2.25241645825245    0.71296524485604    6.74885529183757
C        -3.47425458072443    0.71756150070676    8.52153685814370
C        -3.52834240879619    2.16839149225444    8.54072566509658
C        -3.49357701443314    2.84906525081713    7.20114613658991
H        -4.17688261867905    3.69566856585012    7.20430707851451
H        -3.80635571537094    2.16561888147442    6.41877531827678
H        -2.49466835863544    3.21629372741678    6.96410708285361
C        -3.39702405600621    4.30619655550076    9.57407090379347
H        -4.37469958282814    4.78448540818552    9.44458223179939
H        -2.76406701560633    4.56620416701369    8.72276381518125
C        -2.71588588874395    4.85867277805165   10.83359045355992
H        -1.93291647822216    4.16684329881361   11.14969523891480
H        -2.23731056342801    5.79957166294483   10.55978227519021
C        -3.66606424788326    5.13758680869674   11.99448734024126
H        -3.23024159239440    5.90107066588162   12.65058922248357
H        -4.61158132060120    5.52095194588413   11.60408459238663
C        -5.04506908697879    4.21107629045694   13.74391532544321
H        -5.94945287649906    4.41901529116335   13.16629508428746
H        -4.78456723685423    5.10670320059761   14.32194275033842
C        -5.32247220296303    3.06748463330390   14.71568885554801
H        -6.03766221637059    3.43149869117084   15.45429370527216
H        -4.40515606164849    2.79558020748817   15.24500648693784
C        -5.91924960900399    1.81968695728568   14.04666009021097
H        -6.37717957272793    1.18072558417511   14.80260482475134
H        -6.69415406591321    2.12458116060108   13.33795059054892
C        -4.33075490900054    0.05325810528336   13.72776940285691
C        -4.70884832462458   -0.56485857493464   15.04462538914110
H        -4.79859816199279    0.19293988486957   15.81994046282919
H        -3.96122631738838   -1.28148997546050   15.36669565183615
H        -5.66715036192481   -1.07627262244776   14.95340781256673
C        -3.22745909256566   -0.56791496469150   13.00473386027818
C        -2.91138430332523   -1.92261427632731   13.16416855503792
H        -3.56628961809516   -2.55760866790199   13.74008119832386
C        -1.81192365503070   -2.48088446546601   12.55073209336244
H        -1.60691309247834   -3.53259328964942   12.67046848042761
C        -0.96162982775469   -1.68903947398194   11.78669086481691
H        -0.08674740642066   -2.12084551284644   11.32659868930526
C        -1.24344284314879   -0.35515061039504   11.60100541615883
H        -0.61706894308103    0.26810582687193   10.98041939465223
C        -2.39703614769082    0.21309437727306   12.15675332004931

