34
CSD_code = VINMEL | q = 0 | S = 0 | Stoichiometry = C9H14ClN4OS4Tc | MND = 5
Tc        9.38709045397212    1.50255353596171    0.46693695106129
Cl       10.15283893713319    2.45533772453648   -1.27681263427497
S        11.26603173905671    2.15640019547745    1.80347041672985
S        13.24879508390586    0.28462476099100    2.96520036818613
S         7.46913489373713    0.62918899962197   -1.18293361980129
S         8.08735568847940   -0.92803524189736   -3.65529900904045
O         8.28407699315616    1.45041724378213    1.66879889549008
N        11.34519458805682   -0.46451004146450    1.31453813699524
N        10.29587620629006   -0.21398044928301    0.49068659398641
N         9.96199419420258   -2.16067620144692   -2.26486707715005
N         9.31380405879001   -1.30013526091203   -1.43666160175604
C        11.86814955189147    0.52194766848317    1.93700527471201
C        13.53064106516600   -1.49727130825680    2.73731814268221
H        14.31162388698341   -1.77678629260689    3.43585640248846
H        13.85154994194401   -1.68155025955232    1.71761623235207
H        12.61003139016922   -2.02738115643506    2.95350170877462
C         9.72072965790005   -1.45593072758566   -0.01482790120971
C         8.52751904032089   -1.88911722567292    0.84218692140192
H         8.03488394778560   -2.75072428655160    0.39714020176011
H         7.81361524613804   -1.07541485430230    0.94905110958345
H         8.89209904645726   -2.14558133827429    1.83354294266593
C        10.76957894064769   -2.58348862327353   -0.13827130565852
H        11.74369441386681   -2.22953041863115    0.20222434028103
H        10.49903646745020   -3.45589570842876    0.45554313623823
C        10.77272889200784   -2.88743809149214   -1.60552763890218
C        11.63102097893732   -3.91540673857622   -2.22913643045260
H        11.43315592879729   -3.96460592081961   -3.29530263673864
H        11.43953074351503   -4.88691461623042   -1.77579420877334
H        12.68035295762855   -3.67373069784816   -2.06525680382242
C         8.35590672594955   -0.54382372790777   -1.97937990371680
C         6.82346908992697    0.29003604172080   -4.10067543028355
H         6.63149851747371    0.15212636781914   -5.15955189155638
H         7.20297492585746    1.28864821547880   -3.90864601116059
H         5.92411580640930    0.11134843357439   -3.52097367109499

