43
CSD_code = VINRIW | q = 0 | S = 0 | Stoichiometry = C14H24Cl2N2Zn | MND = 4
Zn        1.92693460400100    9.55698243787627    6.69276318396684
Cl        0.17619425997522   10.52820670594702    7.61473996536048
Cl        4.13630114174141    9.73515197464433    6.93975081181918
N         1.59690645634102    9.32260017880425    4.52964486291636
N         1.87598941272207    7.37038071717154    6.66604215798748
H         2.87798460953046    7.18665672802824    6.73582181875335
C         2.21614257956473   11.70014087446600    4.09333733439492
H         1.28887938799419   12.03869451382892    3.63914785980908
H         3.02964019067896   12.30335064980942    3.69848005668210
H         2.16263770794806   11.86564641817879    5.17038296391541
C         2.49859616627434   10.23362033169286    3.80573492490297
H         2.45139174116474   10.04177748628391    2.72595614638325
H         3.51245832154579   10.01177803064738    4.14697043710453
C        -0.20806293384770    9.46586215706933    2.73096942479939
H         0.28046463733490   10.23414835615000    2.13819283292160
H        -1.28176212572569    9.61299719919453    2.64893819482742
H         0.02799880566614    8.49331754878278    2.30563903053374
C         0.17889808606843    9.55658807375491    4.20591067702196
H        -0.08414364076736   10.54325922186162    4.58731300962211
H        -0.41172482719442    8.83890096221286    4.77605974764806
C         2.00532638753320    7.93447802906899    4.28998691745248
H         3.09561948303287    7.89964617384487    4.35929840448189
H         1.71712700351013    7.59803936548683    3.28723005145432
C         1.43803173863280    6.97165386082080    5.33133261228534
H         0.34553473002198    6.98585366631914    5.31549806567414
H         1.76367176544264    5.95171173312325    5.08578096071590
C         1.21326927170067    6.62767448021811    7.74891498974295
H         0.13839618492790    6.82641912704573    7.66279666180367
C         1.45614946751734    5.13738236296812    7.64204374267826
C         0.38859635467388    4.25016740611785    7.61632000607462
H        -0.62127040903372    4.63133181676154    7.67111010748653
C         0.60622380658886    2.88618223249301    7.52801817705230
H        -0.23411057217751    2.20821305684292    7.51239104733597
C         1.89753949100773    2.39327181054135    7.45776482170097
H         2.06938686261916    1.32977476368318    7.38709991158276
C         2.96899603635870    3.27005076516894    7.48121528887154
H         3.97919059120204    2.89175746888980    7.42971618115422
C         2.74994998905835    4.63253449277071    7.57454273524735
H         3.59811474548538    5.30286530112695    7.60143885060478
C         1.70222180114175    7.15848905063944    9.09382894559447
H         2.77681948520586    7.02426812907027    9.19379871138004
H         1.20903462331105    6.62727042315835    9.90377046172118
H         1.47125658122093    8.21950391743481    9.18130690653240

