49
CSD_code = VINRAN | q = 0 | S = 0 | Stoichiometry = C17H23O5PSi2W | MND = 6
W         4.00916575382005    2.60780261444235    0.91572220694423
P         2.29454772912331    3.22446870030794    2.65989460203438
Si        0.34770458221516    2.05557351510168    2.42789429121914
Si        2.89250663608104    3.14741816498318    4.86108330221338
O         6.11180370649825    1.87066653271568   -1.27782661580130
O         2.96239125537017    5.02476069354529   -0.79591271418150
O         6.34089149958854    4.39548638719398    2.00342386626682
O         5.00163927658088    0.22703476970528    2.70652764628833
O         2.08740249982233    0.72014242511735   -0.68793510211042
C         5.33983511930923    2.13729326850788   -0.47483323705384
C         3.35093255094924    4.14473342124508   -0.17742654050060
C         5.43152785881680    3.77175451258737    1.69401568389661
C         4.63223257911880    1.09261367057800    2.05151589303212
C         2.72940413453241    1.41239334756918   -0.04130812942460
C         1.85903913619877    4.98675723188962    2.52974914745688
C         0.55968260313895    5.45928640278432    2.38926282164977
H        -0.26576259703576    4.76599383543813    2.35374942236450
C         0.31494035558789    6.81736805320718    2.27870687305841
H        -0.70000353745719    7.16907286814403    2.16197274307175
C         1.36054157605122    7.72271192938721    2.31367159892645
H         1.16635930099566    8.78099208026653    2.22430358711940
C         2.66024669140013    7.26244374269653    2.45650781252791
H         3.48324174883212    7.96176188389921    2.47912550423835
C         2.90542399641256    5.90789507763252    2.56025276753848
H         3.92157168835461    5.54904954005423    2.65634861725909
C        -0.36568130775311    2.53560924050926    0.71591538145497
H         0.31305020877593    3.20586553036094    0.19154913053805
H        -1.32775429933258    3.03335138275655    0.79626256739244
H        -0.50534750714569    1.65946170117731    0.08984937327372
C        -0.92833329144485    2.34566153033738    3.82567973832348
H        -1.82199459567871    1.76063126432513    3.63177121629189
H        -1.22974475676724    3.38413334240447    3.91275392075330
H        -0.53733530528978    2.03587596380268    4.78937306850777
C         0.89504360812725    0.22503807774496    2.47353549220091
H         0.39010768346509   -0.35680452041413    1.70878252449214
H         0.67788920143254   -0.23898545614577    3.43028155413427
H         1.96497751847653    0.13746479226624    2.29620321884586
C         2.63780513059933    1.35620707178644    5.46773514069447
H         3.16631912526041    0.65238024638621    4.83246785959505
H         1.59115510759485    1.07156700120863    5.47894548934508
H         3.02200407785696    1.23951060477301    6.47603587822794
C         1.79581544943277    4.38544399531325    5.81644555045018
H         0.74124161816273    4.16768378601812    5.68219052519591
H         1.96634809647675    5.40179478446680    5.47437088455096
H         2.00947319726242    4.35248543822066    6.87981968328995
C         4.73763113753819    3.60753047885105    5.01826302206499
H         5.08693543364277    3.46486312504843    6.03677302619541
H         4.92316230206659    4.64401962910730    4.75229718510049
H         5.34836602298007    2.98293632074919    4.37061252100943

