126
CSD_code = VINXAR | q = 0 | S = 0 | Stoichiometry = C54H66N4PRe | MND = 4
Re        9.17055480638895   15.88399404203827   11.33651538514225
N         9.17067299959680   15.88459618081898    9.41859591112108
P         9.17060495826252   15.88407084473008    7.86731548607887
C         7.70142358626602   16.70042033878906    7.15469704862243
C         7.22053724982004   17.80819681172784    7.84195337244391
C         6.09246505957639   18.46670015421852    7.39094041071314
C         5.43490097704250   18.00806559681175    6.25972348280748
C         5.90713160232146   16.89643893185325    5.58021273537335
C         7.04188795679004   16.23941668507079    6.02329425961195
N         7.57996964595467   15.34441973659260   11.94695683609915
C         6.43952875625822   15.11869478445617   12.60995535996375
C         6.45115489616551   14.42434976029834   13.84861385261880
C         5.25323296450301   14.21917336944349   14.50561685116644
C         4.05543590676689   14.66863701298635   13.97501443507738
C         4.04134246752450   15.33546237643110   12.76222611355544
C         5.21176493635807   15.57920360665119   12.06951422984063
C         5.22492049926734   16.26795778840646   10.72547787622528
C         5.09105010938328   15.21780381228936    9.61793453666804
C         4.14848697238889   17.34028611680069   10.58020877697976
C         7.76384345991436   13.89571560676464   14.37508154962776
C         8.06422716813027   12.54836916348843   13.70844262575215
C         7.81526824066867   13.76174611365885   15.89429278563338
H         7.73914967052078   18.13292995856617    8.73534630034547
H         5.72379414530137   19.33443265321097    7.91859983003592
H         4.54814116256958   18.51537091507487    5.90899600891204
H         5.38765087961988   16.53891966765335    4.70292186445444
H         7.41514154183774   15.37170374944050    5.49606336651610
H         5.24323616412287   13.69249407500398   15.44713838916191
H         3.13078511180948   14.49216042421568   14.50466709917941
H         3.09901214353225   15.67069893180209   12.35707670762052
H         6.20469413346158   16.75198568993325   10.60947480135726
H         5.90408985179674   14.49799806216378    9.68714087444617
H         4.14790522308963   14.68248249930118    9.71370247649253
H         5.12956573708278   15.68902222064334    8.63696111898584
H         4.17748959618902   18.02812264510468   11.42248055992306
H         4.31675089208904   17.90337982126244    9.66416054556498
H         3.15639303725591   16.89859378963726   10.52152541337754
H         8.55398715177294   14.59581202082638   14.07186771969354
H         9.02650848093801   12.16798566192942   14.04469096156062
H         7.29043765053787   11.82252558413724   13.95304949885041
H         8.10324996119278   12.66912679275259   12.62788689625650
H         8.83346852648336   13.53122027560832   16.20070532145167
H         7.51243892318536   14.68943060874664   16.37444455054570
H         7.17201380166199   12.95724777001154   16.24357658995236
N        10.43283450162958   14.77610722560817   11.94709363014425
N         9.49854095285215   17.53113542803657   11.94727066174923
C         9.19791062642975   14.20329514158642    7.15525615212003
C        10.61228504847797   16.74790372147696    7.15451088780527
C        11.19857117854767   13.90135612270462   12.61010146782177
C         9.87363855534874   18.63128293426817   12.61067211923628
C         8.47877923492741   13.23335864063835    7.84287913910921
C         9.92685778048270   13.86203645002062    6.02399510375679
C        11.81201222567572   16.61080509046079    7.84197292247488
C        10.54291680110799   17.54911605124262    6.02277353926982
C        11.79407917085347   14.25866599754240   13.84874048001172
C        11.41357612857767   12.60777409509500   12.06976496388197
C         9.26669715798382   18.96808679685515   13.84949932464527
C        10.88655076785295   19.46419778870017   12.07046994254042
C         8.47223861963526   11.92700140547143    7.39235803526612
H         7.93833797983127   13.52057725840771    8.73619260044579
C         9.92495844608977   12.55062482776370    5.58141773699266
H        10.49185493791904   14.61881380735195    5.49646803838102
C        12.94635094010913   17.25837134217431    7.39083822096918
H        11.83384845098937   15.99968984530391    8.73563316298234
C        11.67931441591124   18.20320915929055    5.57956545399649
H         9.60487963296871   17.65948390581267    5.49539981529190
C        12.57066520970625   13.32383539914643   14.50583083369351
C        11.59558568612170   15.65983741849301   14.37513797804569
C        12.20977850988838   11.71602746041700   12.76259074357901
C        10.81052209503031   12.27469582085385   10.72574923058386
C         9.68840537206411   20.10769591564478   14.50693927667613
C         8.15222962399230   18.09575976467870   14.37559538240864
C        11.26110106152463   20.59928228843730   12.76360697633548
C        11.47609125594422   19.10873636066666   10.72619853488354
C         9.19815170294400   11.58626519881631    6.26127810051706
H         7.90493839616545   11.17418056923989    7.92031183489247
H        10.49425401091655   12.27904365486967    4.70422235641049
C        12.87804613507461   18.05669569171105    6.25928876883671
H        13.88210798445163   17.14404173487675    7.91865424426247
H        11.62951469726800   18.83148487082205    4.70200688883487
C        12.78021599981560   12.06171030170441   13.97536051668110
H        13.03180010105167   13.57857461329522   15.44732737536740
C        12.61241019613173   16.59356595705025   13.70865405027359
C        11.68565319891577   15.77138456261952   15.89436126602593
H        10.59428360304312   15.99414318199561   14.07176489118470
H        12.39054552387238   10.73226928770113   12.35755117207198
C        11.78684280492606   12.68390583552723    9.61816479079079
C        10.42023528840612   10.80626456294243   10.58052615556485
H         9.90139341280288   12.88109509542813   10.60975034917007
C        10.67677398785960   20.92017522784104   13.97658133540652
H         9.23746097297939   20.37946008059225   15.44861051467396
C         6.83550774486184   18.50957731562921   13.70851948779083
C         8.00997973798878   18.11817663704187   15.89475558661837
H         8.36336810470924   17.06139833131001   14.07240431827002
H        12.02276088374813   21.24767267094663   12.35866544274715
C        10.63256860881785   19.74918245519555    9.61907728086572
C        12.94263356548326   19.50571145105653   10.58011808218841
H        11.40599558719245   18.01816306844820   10.61027246744558
H         9.20196376967936   10.56452480702097    5.91092881976982
H        13.76079187896925   18.57087184194219    5.90844380869895
H        13.39528125868239   11.34916746794421   14.50510675426933
H        12.46073619553066   17.61712370823010   14.04490346348854
H        13.62784190337677   16.28627027485139   13.95339730309573
H        12.48847613277858   16.56701827016495   12.62807880525370
H        11.37626692466077   16.76848397473448   16.20068790942054
H        11.03349684664546   15.04537775229417   16.37441945144990
H        12.70391623420874   15.61643901792475   16.24381876317833
H        12.00340212415321   13.74799425071823    9.68716764244074
H        12.72215843551511   12.13503829674342    9.71405586250641
H        11.35957420798183   12.48134840154579    8.63722114783147
H         9.81013262669570   10.48740304429012   11.42283410323037
H         9.84841622104549   10.67035501561448    9.66451054191262
H        11.29887362739030   10.16803740554172   10.52179993005213
H        10.98658892785950   21.80887809460566   14.50656142817080
H         6.02469308417783   17.86657403194186   14.04447293128439
H         6.59394793551586   19.54266772988672   13.95306953986866
H         6.92092456321452   18.41540840274235   12.62798828823075
H         7.30090994815890   17.35184280911733   16.20088595378800
H         8.96456316614144   17.91629779367131   16.37524297297492
H         7.63503423925700   19.07759543092827   16.24394250969147
H         9.60293753801402   19.40431858471128    9.68889708065221
H        10.63992349528250   20.83363888356092    9.71479679578840
H        11.02100713281740   19.48040539811139    8.63789537249244
H        13.52452260670601   19.13705718549176   11.42206941486822
H        13.34591383592993   19.07868417807094    9.66384868633830
H        13.05544151630122   20.58580947544607   10.52134427145418

