60
CSD_code = VINYAS | q = 1 | S = 0 | Stoichiometry = C28H28NOPRe(1+) | MND = 8
Re        0.41014779276071    3.02916035959256    3.35434771851832
P        -1.87586362930489    2.51082478589172    4.10676097790808
O         1.34865546729605    0.27227608917833    3.29525521233168
N         0.93951805950809    1.36429144848096    3.29069192176888
C        -0.10123444355643    2.97341362539879    1.39991670867970
C        -0.41953063329067    4.19762210658261    0.61002526411636
C        -0.70205374619897    3.74686864467431   -0.83130992512087
C        -1.09849446957781    2.28112697167417   -0.68062234818828
C        -0.20972234090805    1.81358311309646    0.47449477224045
C         1.46979598284978    5.11784543225698    3.28841864161236
C         2.31172942672282    4.20777818264625    3.99581452455833
C         1.65769886321943    3.86812453605735    5.20910828587939
C         0.40871755041417    4.50513794358502    5.22187731482672
C         0.27741557317061    5.26618288179546    4.02031098415970
C        -1.92914686440109    1.70472803282519    5.73024735029715
C        -3.17500300080135    1.50899654370758    6.32535450700168
C        -3.25817309966212    0.86319004387831    7.54395716028178
C        -2.10795825003012    0.40073019983615    8.16661735529411
C        -0.87235988132644    0.57572841494971    7.56586305242101
C        -0.78021938826937    1.22469964174363    6.34684441085857
C        -2.84375672147621    1.34696942391264    3.10037221607856
C        -2.21873744556974    0.14514776110189    2.76921151235627
C        -2.90758188283287   -0.82184785784055    2.06231803871597
C        -4.22379320227361   -0.59811784991122    1.68592099479098
C        -4.85265021331596    0.58595068181904    2.03225287897980
C        -4.17048501918989    1.55922572134914    2.74343775609325
C        -2.86181758343325    4.02418888295021    4.22740685151178
C        -3.12398633177722    4.63940090363575    5.44774240337503
C        -3.81970788934142    5.83581664293841    5.47910365271691
C        -4.24535791018412    6.42731305106735    4.30060615412728
C        -3.98234378587984    5.81911161778149    3.08179636977565
C        -3.29003843143548    4.62367384248876    3.04243357078684
H        -1.28784634534612    4.70053165918784    1.04292958492860
H         0.39933761771729    4.91786285133135    0.65716548375497
H        -1.47335153410459    4.34582321282877   -1.30940641303310
H         0.20777782046092    3.82431150119436   -1.42629627850579
H        -2.14582358661587    2.19144381088494   -0.38937266910116
H        -0.94233222767666    1.70774356251423   -1.59014157025098
H         0.80276101539906    1.61567640206140    0.10255825287854
H        -0.55996750872240    0.90429126205495    0.96273360983793
H         1.75712399135563    5.67346067737439    2.40948659736726
H         3.33753095676220    3.98338026933480    3.74842203793770
H         2.08682014247077    3.29262086096456    6.01336325215454
H        -0.28431862405113    4.51840703630444    6.04947455628834
H        -0.50015285625587    5.99142599847892    3.82637991648313
H        -4.06929599158463    1.86175288176066    5.82943429441621
H        -4.22120042743004    0.71605524375217    8.00803271866712
H        -2.17738480063793   -0.10269744486813    9.11824459377358
H         0.02037055855129    0.20395491845392    8.04475790239354
H         0.18315297713141    1.35142360944651    5.87052420288005
H        -1.19822462711334   -0.02337867429772    3.08593839925233
H        -2.42103369036193   -1.75038960211239    1.80711659948612
H        -4.76130763059057   -1.35085437562110    1.13077311459254
H        -5.88171541353643    0.75369261751162    1.75339730893529
H        -4.67627187323196    2.47315345014104    3.01913433934931
H        -2.79608654257584    4.18041514223319    6.37030815572484
H        -4.02685668940024    6.30869780665729    6.42686841455738
H        -4.78260936226916    7.36236656397698    4.33089829107766
H        -4.31701629054723    6.27900636761107    2.16429643614586
H        -3.08594160969435    4.13218057169244    2.10070257926337

