38
CSD_code = VINZOH | q = 0 | S = 0 | Stoichiometry = C11H21Cl3MoP2 | MND = 10
Mo       -1.92753688777416    4.94520661230654   12.19107487938171
Cl       -2.96651509201731    3.94644455744462   14.25083736512901
Cl       -0.37068037918161    2.99455111364969   12.27761200677472
Cl       -4.20635186110041    5.66921059589016   11.40918648758811
P        -3.43254673624396    2.99898771221708   11.92060767505164
P        -1.60365550757900    4.46494937440542    9.85800727957361
C        -1.44352328904951    6.57409691893000   13.89633891302294
C        -1.99176333266615    7.24939779097981   12.80262380561141
C        -1.18383566156492    6.99445648450664   11.66268486319279
C        -0.09355551997789    6.16254447149587   12.08211458461974
C        -0.28710516234657    5.88459871959960   13.46609153705702
C        -2.90561533706374    1.32447278639295   12.43381153167427
C        -5.17022403088144    2.92731068876423   12.48673893984128
C        -3.65694514346187    2.68214249561218   10.10011683327219
C        -2.29835205034079    2.82485300908572    9.43510288561464
C         0.09089944270139    4.33329176116552    9.21103058338702
C        -2.38836943433957    5.54636295359079    8.61648333897189
H        -1.80800493140798    6.61825408042809   14.91363460868541
H        -2.84757095233649    7.90974261109323   12.82957305456483
H        -1.22724509990812    7.56261845862915   10.74301388853802
H         0.83300003357519    6.00886696819717   11.54632722206826
H         0.42322239951114    5.38778090690344   14.11295989399195
H        -3.75082367504280    0.65003194026089   12.28509601368973
H        -2.05221001665817    0.98769858873991   11.84918237466738
H        -2.62401318302159    1.33857020637488   13.48578625579876
H        -5.18978992564067    2.48654598896998   13.48337856240322
H        -5.61973636524206    3.91625785984372   12.52034133925388
H        -5.72305073738570    2.29734328152725   11.78836466181112
H        -4.07821007665219    1.68429746047273    9.94050431780150
H        -4.35718271827593    3.42721292729258    9.70875363809792
H        -2.35525988023552    2.72715127485150    8.34435309951987
H        -1.59779545282991    2.07845589775701    9.82609438053863
H         0.67112860389728    3.70518831090672    9.88491751728609
H         0.06573120224474    3.89066817728209    8.21494609538596
H         0.53524873307071    5.32639161976377    9.15510520830081
H        -1.90954689041081    6.52379844996401    8.64051332564350
H        -2.27563556565418    5.11234723475273    7.62281627413913
H        -3.44197951870551    5.66939970994676    8.85987475805020

