52
CSD_code = VIPDOQ | q = 0 | S = 0 | Stoichiometry = C21H17AuF10N2S | MND = 4
Au        9.05155468065453    1.20917089263637    4.65211525020340
N         6.26162792537943    0.38762624631358    5.15626304179287
H         6.07946360025960    1.23059861841670    4.63177523638671
N         7.83448384823118   -1.00089913969558    6.07056416062342
H         7.12311164914115   -1.51150903016076    6.57821196962238
S         9.50057738264719    1.45243003160631    6.93482869814251
C         5.07695725214409   -0.24017392763308    5.73165076427371
H         5.23103833823486   -1.32629010648522    5.74427376529795
C         4.82689031382416    0.26804977206457    7.15536296292012
H         4.69545904105397    1.35156718652757    7.12415984783226
H         5.69032971042112    0.06175180233933    7.79145790590399
C         3.57351368014178   -0.38433995972044    7.73253468026426
H         3.39739405923493   -0.00616115743301    8.74009996410231
H         3.72198824582141   -1.46472507575990    7.80213073942640
C         2.36552210998516   -0.09441612950115    6.84729781261504
H         1.48070349321111   -0.58373635406549    7.25641067101288
H         2.17727232164483    0.98077567117365    6.83332825360121
C         2.61548444209406   -0.58432261106753    5.42426307213196
H         1.75950796714283   -0.34652790514546    4.79200276556264
H         2.73589059952795   -1.66993816419696    5.42777325802301
C         3.87149009943617    0.06406884705766    4.84570933133654
H         4.05395626971506   -0.30628649697423    3.83473215160269
H         3.72828387914459    1.14593144781950    4.79322846410342
C         8.65990264763529    0.85538820851900    2.68384025188962
C         8.47145010814774    1.84655798332485    1.73339071974828
C         8.29077699163830    1.56845600617803    0.38106873454206
C         8.29897117590163    0.24755550844273   -0.05321755134362
C         8.48069593541805   -0.77333402840047    0.87338447092574
C         8.65856400350272   -0.44863246996104    2.21318104023641
F         8.44458873377711    3.13031002146219    2.12006915127957
F         8.10537120779072    2.55821566713586   -0.49651162597687
F         8.12265834621672   -0.03872645042032   -1.34421014730084
F         8.47200687578601   -2.04989443449811    0.47727866901332
F         8.81504910163824   -1.45571006766628    3.09407678209683
C        10.58826248021906    2.37662729861265    4.12534079596450
C        10.54057828673231    3.75529131586674    4.26975396826396
C        11.61161559813780    4.57625040866987    3.93251565907766
C        12.77792638654703    4.00748876298250    3.43168051922329
C        12.85698461136841    2.62856847596418    3.27208162270849
C        11.76339401439236    1.84512677749878    3.62039302753158
F         9.42219403338604    4.31727860568091    4.74620994715251
F        11.53066992983692    5.90115761258290    4.08420714634757
F        13.81635501286412    4.78099798430440    3.10313232608938
F        13.97183768121411    2.07090115599590    2.78671376398803
F        11.84372383584789    0.50897746256827    3.45844297790069
C         9.75724153927589   -0.28953863871542    7.42122599293142
H        10.82790567878264   -0.44389999490573    7.54448108818168
H         9.26536297104531   -0.39998337163971    8.38808567970502
C         9.20701102448062   -1.29436868651554    6.40920404904648
H         9.81225994125589   -1.26593876875123    5.49849064372553
H         9.25747528356535   -2.30146254323596    6.82751836879772
C         7.52726565450978    0.05829574079969    5.34519716147187

