58
CSD_code = VIPLIQ | q = 0 | S = 0 | Stoichiometry = C15H38IrP3Si | MND = 6
Ir       11.27758154851155    3.10366121785122   13.23839472199173
P         8.89413278814777    3.09067125361893   13.66368057146715
P        11.17447478753902    1.03536857733611   12.09010971348307
P        11.25245540089352    4.68388172068769   11.44702312438691
Si       13.67522260016853    3.05275785544821   13.26271737446884
C        11.48550550899963    2.95475059301423   15.34623127151920
H        10.58999894808865    2.68643017983269   15.90685387448632
H        12.36615991229051    2.48169484916390   15.76802098303897
C        11.61716782806665    4.34109848042523   14.96171203459045
H        10.79820161447145    5.00471355467192   15.24660742203791
C        12.93651297203080    4.97930362339201   15.08241980455672
H        12.98731396881307    5.84719301518408   15.73680125985413
C        14.00662162966156    4.50179825683940   14.45475245621338
H        14.98129462455828    4.94144364456256   14.61952271126334
C        14.60106871118604    1.52702946181094   14.03195614259718
H        15.57577607607547    1.83642435251495   14.39573885232937
H        14.76169204535230    0.74137375269119   13.30022668229257
H        14.06147691110530    1.09635906495260   14.86791672594474
C        14.87136261660183    3.41671817785484   11.77606341784340
H        15.89663208616286    3.39060718312397   12.13023536826272
H        14.70532284978190    4.39158925242346   11.33152177377803
H        14.78146405724460    2.67247655135931   10.99222364464222
C         8.18115633447565    4.33078369611527   14.82919305644528
H         7.10335909972571    4.19555603673227   14.91987529877154
H         8.38712754733817    5.33497392187192   14.46154880966496
H         8.64029012097969    4.21889026166839   15.80885116952524
C         7.57246201175875    3.21884949621197   12.37110165733283
H         6.63133382394801    2.81863802063795   12.74731252362240
H         7.86151258829793    2.67148229343374   11.47777870289707
H         7.42987428253186    4.26334874211386   12.10534596148048
C         8.26636445169303    1.56973560143995   14.50457509542042
H         7.23632962404009    1.70728084663155   14.83370823612904
H         8.89147583027725    1.34366828164839   15.36517842204615
H         8.31493872531194    0.72739162574668   13.81789759819393
C        11.31775688195842   -0.46603857878241   13.14681602878703
H        11.29346089314405   -1.37936495770282   12.55312139812986
H        10.51159773308046   -0.48148158543364   13.87628780212443
H        12.26129669341557   -0.39885358610397   13.68289746869937
C        12.49188682366851    0.61750375563301   10.87327762785481
H        12.34018258584027   -0.37994014465578   10.46154419301310
H        13.45408607937821    0.66478766361893   11.37339231513007
H        12.48504176233327    1.34791594262925   10.06802841193970
C         9.73545503240713    0.51431898917436   11.04462556315109
H         9.90399122011152   -0.47715546912925   10.62494249442652
H         9.61349451971707    1.23004921751834   10.23271196250138
H         8.82257458622773    0.49903476012851   11.63517751977539
C        11.93296640294954    4.32256789999984    9.77024876643346
H        11.94165696734118    5.21743169168098    9.14873508139557
H        11.31718664775397    3.56038131583894    9.29490975951124
H        12.94368953085433    3.93963338488255    9.87453863587914
C         9.69482001393406    5.50969749723050   10.89234426428145
H         9.91707368752149    6.32406890712324   10.20282239667036
H         9.17589881326970    5.90950440363809   11.76148651050369
H         9.05135230698532    4.78642506147763   10.39599707860532
C        12.19749081943888    6.21114765843453   11.83906644044682
H        12.22527667393545    6.89342061302442   10.98980227002904
H        13.20584764403564    5.93984239788300   12.13707861878962
H        11.72045175455847    6.69955971887529   12.68655092934101

