76
CSD_code = VIPLIS | q = 0 | S = 0 | Stoichiometry = C36H17F12IrN8O2 | MND = 6
Ir        9.07711072509575    5.69828584971923    5.34078793796925
F        11.88676494559223    4.33525719123779    6.72072547685102
F        12.85322280499543    6.11772223946242    6.01167988895688
F        13.79677103400984    4.20940804051005    5.75441410233964
F        13.56619046710106    5.13217937867691    0.39896246263675
F        14.50163269565861    3.55145802255810    1.51869490447963
F        12.89734147095474    3.10698994144584    0.15717132790557
F         8.87173556934379    2.37218051338054    4.36381629747143
F         6.77804654569680    2.60235168176435    4.78396330836615
F         7.82243766541134    0.85592416223426    5.45527035578337
F         8.54019215243527    0.50843463149203    9.98423864997215
F         6.56980477490775    1.37016308574893   10.00740979827571
F         8.12884037888230    2.21973274337114   11.21467248191068
O         8.95308289436965    9.41288215779955    3.33110172950057
O         7.42619019153441    6.71634120791984    6.27059359290995
N        12.77303126176657    4.38719722840144    3.38496260383503
N         8.00454892387474    2.12448734027162    7.66971981062806
N        10.06522372180249    6.48647647463876    6.90880796537756
N        10.09804098526497    6.37888525034427    9.27036185557005
N         7.96640611693186    5.05703266228965    3.80940716822733
N         8.09634986429775    4.44376288655878    1.53332540723125
N         9.25598482323425    7.43529082637021    4.19962947357609
N        10.08300983778323    7.54437935452004    3.14290560399592
C        10.55152744123373    4.85525157721606    4.21224242064102
C         8.81621033715279    4.16731634035600    6.65959379906045
C        12.30535638388615    4.21256157475659    2.16452571967129
C        10.09240017518908    4.59741515262789    2.89726179651525
C         5.98818990605788    4.87118601152033    2.52676851197393
H         4.91537344208280    4.92871670747593    2.45712465043669
C         7.07574583343007    7.94541482420135    6.19869857159422
C         8.27659152211359    2.87452257697053    6.61556764639777
C        10.95417833597990    4.27360452135363    1.85862025152153
H        10.57546723576357    4.09022973047977    0.86602286579362
C         8.65355287274857    4.69669118326317    2.70016281307036
C         7.58109852986044    8.90426126384640    5.26442604690156
C         7.08492701244319   10.22202847629303    5.26296396825466
H         7.48869813530545   10.91672830225421    4.54091185380443
C         6.07944672907064    8.41159113079466    7.09837064009854
H         5.69533850609832    7.69369060633603    7.80751945441109
C         9.12209716093412    4.59447994607853    7.97375349118981
C        13.32771135151107    3.98698035724384    1.07583913847704
C         5.62420716094125    9.69988993778212    7.07686885838481
H         4.86772441472060   10.01121600673762    7.78239674631948
C         6.12576281128978   10.62259326720551    6.15161357271125
H         5.75870701210206   11.63663015920088    6.14225026227623
C         9.89609811632247    8.72204891235402    2.63768848447518
C         8.84622426461779    3.82357068328821    9.09752535107906
H         9.08536948721930    4.18837100248882   10.08333528050647
C        11.93027602422644    4.67521705071621    4.36347890166559
C         6.64223392458081    5.14262298104198    3.71701491480067
H         6.10827989314627    5.42690126794080    4.61416217652831
C         8.57241419044614    8.56002580933858    4.30716277166705
C        12.61934183830943    4.82176235616952    5.70031948178259
C         8.25902960062407    2.58876496272005    8.87938980747659
C         9.78510292066792    5.88455705230028    8.08907788883421
C        10.57638131783216    9.27233338586045    1.49240406667677
C         7.87564800969660    1.66884685520877   10.01619809461984
C        12.20072258913325    9.00900377725099   -0.25515006165110
H        12.94466164915447    8.40898751614799   -0.75572247799754
C        10.28645658243335   10.55757937670188    1.03619332942434
H         9.54113904267214   11.15089039048013    1.54452766594928
C        11.91218179177979   10.28849804750569   -0.70781692530322
H        12.43329845006610   10.68685833402419   -1.56518388331930
C        10.95700662366466   11.05903230949756   -0.06285936731237
H        10.73491113317806   12.05415819581598   -0.41778117044457
C        10.73943344959383    7.53085711474518    9.31860492570608
H        10.97216050876483    7.90349937802372   10.30651863859431
C        11.53783752773895    8.49645518465072    0.84159343412764
H        11.74950839805223    7.50554589110672    1.21090587731489
C        11.09653781156893    8.21432797134975    8.16327930870741
H        11.63723857839993    9.14493150066990    8.19190436000260
C        10.72479815051031    7.64104405669628    6.95947826256350
H        10.98071228975349    8.11041552791135    6.01970634365914
C         7.94307096430618    2.17169160367766    5.31914185596724
C         6.78091012583395    4.52292876205895    1.44027145651246
H         6.36274258488491    4.30255021755959    0.46780592409350

