78
CSD_code = VIPLEO | q = 0 | S = 0 | Stoichiometry = C38H19F12IrN6O2 | MND = 6
Ir        5.65558528881686    6.02198404423283   10.35750903155420
F         6.74186601050509    5.15255486859544   13.48045027406119
F         4.66505070116882    4.76316699189423   13.88087318526523
F         8.00436010425021    8.31753226408487   11.07206782864452
F        11.44635492721161    2.32970119197826   11.51029684799160
F         8.67579797840986    7.98647577139783    9.05571762257588
O         3.57045503542606    6.29293753552544    9.86230191673222
F        10.09509234223096    8.14734573779127   10.64964429644534
F         5.86308730873276    5.79875386573891   15.31834641473007
F        11.49260020889527    2.74332070561076    9.40349728906607
N         5.77786840178319    7.80227474412246    9.43092140315682
N         5.73343418565967    4.96421920098015    8.55116490084478
F        12.44318354734212    4.09080133158225   10.78202575788725
O         5.21300034308347    4.00801196454270    6.65987433165877
N         5.34180407520829    4.21854398974443   11.14444949774621
F         3.34493964588474   11.32354550609296   14.11520042069925
C         5.35934952284076    7.21917457833328   11.98546840781112
N         4.90679399304463    9.98896925029293    9.64243911747289
C         5.01991049289653    8.52431812622907   11.55570924849372
F         3.00802193661770    9.77891941383224   15.57203918428615
N         6.78614518176919    4.21800661652480    8.17135945887814
N         6.38201458101966    2.12427583774919   11.46397403737645
C         5.22327036496587    8.81015706848375   10.14609413378517
C         7.59906735824743    5.48918368901836   10.70088561445560
C         7.68932224244625    4.09625465176142   10.94280880728629
C         4.55312769382773    9.51935798938660   12.40577193726606
H         4.29751835155109   10.48501776397594   11.99820362818684
C         8.88681637146099    3.39730252575012   10.94566324571517
H         8.87878221827214    2.33213781338261   11.11776719580789
C         5.74538873638342    9.25373677480738    7.55643718850153
H         5.96781715533953    9.43634020842564    6.51897232739812
C         6.43088921357816    3.41562087271765   11.19662735422693
C         5.15196632045536   10.21353261831213    8.36631585821975
H         4.86832687872750   11.18811206418129    7.99332262371522
C        10.04075524902367    5.46055034667168   10.53828606141974
H        10.96461753795200    6.00140194202309   10.39492240252831
F         4.90695083766284   10.77797609220270   15.48661367128827
C         6.04024854532809    8.03801091759334    8.14845801771521
H         6.51396307372456    7.24663114927518    7.58390707533177
C         5.63320686556504    5.70112746304276   14.00155038911770
C         8.89743575841024    7.63030611393689   10.34343794738827
C         4.42252640270736    9.24099566236472   13.75320745891873
C         8.82678244932417    6.14088559600776   10.54543968179738
C         5.25352072668650    7.01307910681825   13.36841262091860
C         3.49572710090778    5.42770967727142    7.61390921493476
C        10.06633517195906    4.08611628738706   10.71724923290254
C         2.97486272724255    6.13855629887076    8.74214637816679
C         4.15429246845668    3.67445226713809   11.39280218264455
H         3.29770552782610    4.33400833145087   11.34722643296900
C         1.66999670763499    6.68223891253608    8.59084121298657
H         1.27172506399015    7.22351184960965    9.43603397257861
C         6.46698654420847    3.65670643482135    7.04912565320576
C         4.79264829610305    7.99468739303205   14.23872384624436
H         4.71670623037551    7.79166056116036   15.29690770677382
C         0.94908369374446    6.53631211417990    7.43945218101846
H        -0.03730316260928    6.97125432425233    7.36739100377837
C        11.35805647084390    3.32541102756673   10.61699277268336
C         4.03233120453183    2.32935929648988   11.69841759083499
H         3.07180845964805    1.89167065872469   11.91039115312561
C         4.78492729893561    4.83208306582794    7.64229862854598
C         7.30125069900073    2.76717968241237    6.28078283562088
C         6.85924090755316    2.23064600764476    5.07251232812757
H         5.87685940330802    2.48284656715861    4.70197657609700
C         5.20408225174349    1.58312099037143   11.71575241718390
H         5.20875069698768    0.52371411034969   11.93295540037468
C         1.47199542034128    5.83037006077134    6.34975674013623
H         0.89384280645812    5.71991004064147    5.44597608385696
C         2.72272403721717    5.28549902174757    6.44629914090558
H         3.14860089407354    4.73873528164290    5.61743157072390
C         3.92077330065173   10.27681463527733   14.71971229931510
C         8.56943464886518    2.44650900829113    6.76942862926908
H         8.89089706217597    2.87237221924797    7.70671766303080
C         7.68426861343049    1.38073127023315    4.36086293876029
H         7.34469914512175    0.96423269425396    3.42442070246883
C         8.94358633063625    1.06366252966713    4.84590843673292
H         9.58328448656563    0.39954576784590    4.28447087099107
C         9.38388619037814    1.59656072528442    6.04905638884419
H        10.36401713726317    1.35045891982194    6.42723409981475

