60
CSD_code = VIPLAI | q = 0 | S = 0 | Stoichiometry = C15H40IrP3Si | MND = 6
Ir        0.12839937490196    8.03631254799270   -0.00904819065593
H         0.42785542810387    8.41489230292522   -1.47761012719709
P        -1.92752832048269    9.32889934735579   -0.29687165241388
P        -0.81644008223576    6.00298759663942   -0.78624003626162
P        -0.17720594422203    7.52447470702964    2.25298436517740
Si        2.43326636564359    7.34494452561451   -0.01721430098778
C         1.01518097474830    9.93009355735795    0.52848343956828
H         0.86745922714497   10.66124496318902   -0.28138942767058
H         0.46642814139592   10.34103647015896    1.38903973125039
C         2.47453756483760    9.96704255100402    0.86785348449992
C         3.25493699449720    8.91063990287437    0.67621921773673
H         4.31237901282040    8.96644088198764    0.90364976710679
C         2.97280653880192   11.27767269369774    1.41675805024821
H         2.77864616717105   12.08394335886969    0.70886596086809
H         4.04193063805276   11.23921826227317    1.61393685450152
H         2.45713832239418   11.52392593663521    2.34658680511705
C         3.22898312812295    5.93282323751079    1.05916400940996
H         3.21547766112028    6.17344742924546    2.11762447327822
H         4.26834046556467    5.81625187870417    0.77037526004260
H         2.74784292342770    4.97012788588789    0.92142246566632
C         3.29597857833958    6.99129639182911   -1.71740129632433
H         4.37318851797123    7.07029889642001   -1.61176034954318
H         2.98193754760453    7.70230715440638   -2.47199986165803
H         3.07631958186581    5.99458439702952   -2.08711283434360
C        -2.00784367928233   10.06893613916167   -1.97866990127425
H        -2.88958142076035   10.69979416446644   -2.09313915571213
H        -2.02305375523657    9.27536057402348   -2.72244306980255
H        -1.10727749449344   10.65833040930696   -2.13558595990959
C        -2.20179853132629   10.88436429931671    0.65896808337327
H        -3.12059664761329   11.37181186691107    0.33393434368166
H        -1.36118275633540   11.55215027362718    0.48791764846559
H        -2.26605172047264   10.67645201137060    1.72505065155249
C        -3.66048909676283    8.67718724490967   -0.23085611180894
H        -3.77103565222492    7.88410664001281   -0.96847586140880
H        -4.37636845676680    9.46761549894093   -0.45435624691207
H        -3.87543347605953    8.27238856399401    0.75613568628378
C        -2.32375128111458    5.19191461137819   -0.07553173221582
H        -2.58592939782812    4.30684265872885   -0.65482990076474
H        -3.16130436600814    5.88523998694190   -0.08651113649532
H        -2.13712876095906    4.89691855508095    0.95503568906832
C         0.26053070886432    4.51452675145800   -0.86865838988980
H         1.14735589324740    4.77273440960562   -1.44173062981417
H        -0.25780360303001    3.67889985263586   -1.33894936921208
H         0.57246035222140    4.23236381537791    0.13416647379442
C        -1.34606103533220    6.04068584501745   -2.54859299829873
H        -2.14054667254292    6.77358251180638   -2.67623843045584
H        -1.69588137990377    5.06295664200210   -2.87988093574970
H        -0.49203316604505    6.35146066101010   -3.14669117339652
C         0.78849790198490    8.45209649427246    3.51132230873377
H         0.67280240362081    8.00711575612804    4.49951272337958
H         0.45421911165476    9.48710048295142    3.54142603750163
H         1.83541895870873    8.43981500515447    3.21410969100093
C        -1.86171498437554    7.71658780284888    2.98553503341612
H        -2.20704792469298    8.73859804041297    2.84144767370799
H        -1.85267172129351    7.48917426195035    4.05178988886109
H        -2.55243696563643    7.04255858837524    2.48083559928583
C         0.16012746805510    5.82191184397014    2.86735785762828
H        -0.43126219772661    5.09971592039234    2.30881342676996
H        -0.08054985160071    5.73875739946996    3.92754497575497
H         1.21106438947860    5.59723754034859    2.71352140344571

