111
CSD_code = VIPRAQ | q = 0 | S = 0 | Stoichiometry = C43H61N3O2PdS | MND = 4
Pd       10.82868747431946    7.81304759394583    8.56478457380486
S        13.72537163276985    8.09322424714340    7.93560589217538
O        14.14543502453910    8.10911115386618    9.32924259596708
O        14.73359695954695    8.52561019031306    6.99378198465352
N         9.04637398801438    6.07537495780739   10.33774509674015
N         9.65619019407238    9.64119551617043    9.20018330931253
N        12.33869682958576    8.85100367800885    7.70831633310786
H        12.48112964552968    9.84933748686428    7.66242432332203
C         9.28286025756636    7.03941640165399    9.46977922506562
C         8.01269602938188    6.42624067241672   11.34100191495261
C         7.11220108109416    7.36169077868143   10.52603043890872
H         6.62549234006804    8.08138646711435   11.17061952766520
H         6.32938714204677    6.78840463141121   10.02418421622006
C         8.05909926751292    7.98154748687365    9.47790093328006
C         8.47395080605898    9.44803812478953    9.62075347617304
C         9.65945712955651    4.78403708279925   10.27725119709530
C         8.99670303672449    3.76894240253957    9.56530839969946
C         9.59176032890334    2.51756014987457    9.48635157726009
H         9.09501324939257    1.72827997100628    8.94350743316154
C        10.80921015686816    2.26504197814004   10.08696551284048
H        11.25690257873129    1.28501144047339   10.01363826657678
C        11.44772745513733    3.26936975473976   10.78132894113825
H        12.39674390384818    3.06648282914613   11.25090782336251
C        10.89219736762276    4.53912373056788   10.88745783773470
C         7.65538509729733    3.96151719252669    8.88665682473353
H         7.24984809686016    4.93129357068567    9.17807679550825
C         6.66118500997719    2.87259088874486    9.31270971246382
H         6.87626630601321    1.93468864845020    8.80828176149936
H         5.64777848720965    3.16703242412700    9.04564602112772
H         6.70108908408104    2.69421963487700   10.38478514615244
C         7.77550363247879    3.95897749055704    7.35908950831415
H         8.28566605290251    3.06376046496421    7.01336001427692
H         8.32536406064211    4.82914457039236    7.00757125321618
H         6.78188198334780    3.98032338674238    6.91403299674014
C        11.62302291754828    5.58423834749934   11.69149452795543
H        11.07857168665506    6.52902970941310   11.62319396190392
C        11.70124736290513    5.15087946870849   13.16089674217140
H        10.72297227806358    4.86550124533234   13.54691692139114
H        12.09233162899587    5.96282448175628   13.76976328396001
H        12.36419959256041    4.29682701584355   13.27220602428176
C        13.02388087775777    5.83388194334117   11.13635684110021
H        13.60213000103480    4.91687086127954   11.06966371865932
H        13.56004244866111    6.53118578472156   11.77401604552806
H        12.96198899572171    6.28108421015725   10.14508888770230
C         8.68751642573913    7.21677688738991   12.47073638524782
H         9.28308511998162    8.03064377772401   12.06209950185776
H         9.32948726951945    6.57122319797511   13.06104841197200
H         7.93177966096900    7.63405003149715   13.13310143915232
C         7.29171262536998    5.23166744583018   11.94952572160106
H         6.72804832852254    5.55927320751215   12.82017678761615
H         8.01084082244112    4.48087486774099   12.26941181374840
H         6.59663683534770    4.77456601453632   11.25421481464405
C         7.48926391265404    7.82309061298141    8.04710106572758
H         6.61701306298079    8.44977845578121    7.88673400889197
H         7.20030471495085    6.78793531603646    7.88057284968314
H         8.26186167316385    8.07526237526196    7.31735434454664
C         7.51430104917155   10.53754290368826   10.13647617712053
C         7.44974070116584   10.52381851751935   11.67627697837650
H         6.93193839527826   11.42011727816410   12.01146721680605
H         8.44527807235372   10.53574258020017   12.11155683086329
H         6.91245733931312    9.67110451387786   12.07573031316407
C         6.09634833991769   10.36845467248637    9.57040311420410
H         5.44392482769219   11.10883561332627   10.02964688173559
H         5.67406448232846    9.38894855519435    9.76557378706603
H         6.09326181781799   10.54824811745309    8.49743049051299
C         7.96649488876279   11.95458007352329    9.75093865352093
H         8.06887841116940   12.06841503295171    8.67762642072406
H         8.90645185692289   12.22227599045444   10.22320415524181
H         7.21097899348962   12.66288703960482   10.08775424406855
C        10.41009624846449   10.78815051900998    8.94612580842456
C        11.33480792326255   11.24254130877111    9.90036531405667
C        12.22671561549151   12.23826644975202    9.53539770157253
H        12.96001158265661   12.58564297549439   10.24439580825015
C        12.19995211688140   12.78634345980569    8.26684635135368
H        12.91238621238991   13.54981360864524    7.99399273006165
C        11.26280816984293   12.35583014385765    7.34605534137240
H        11.25209247659884   12.79554687629436    6.36166456748541
C        10.35202719935149   11.35983720853943    7.66075350262312
C        11.34982677814205   10.62096897276345   11.27967902097502
H        10.31511368889117   10.35823966671189   11.53608365516341
C        11.86210341965303   11.57036233811270   12.36293056787912
H        12.93512718162290   11.71574298252771   12.27604458122652
H        11.66304469966978   11.14645587362287   13.34563479478453
H        11.36836655027779   12.53864769627936   12.29977042082221
C        12.17075187026357    9.32965310615809   11.27369869134525
H        11.77952881173850    8.61042344603808   10.52940210872267
H        12.14828922696094    8.86642344572103   12.25914852584229
H        13.20492549988678    9.52511888624635   11.00143345317343
C         9.34540689902573   10.87112304441119    6.63802917066802
H         8.48698781472476   10.44739083741368    7.17263065626831
C         8.81531975697493   11.99988941469658    5.74952384513369
H         8.51136001035170   12.85947701514866    6.34464568084751
H         7.95282337635431   11.64898233855623    5.18572110937896
H         9.56714876599655   12.32401384672857    5.03543719393261
C         9.95220440354266    9.76128811331883    5.77073131633947
H        10.82241588610928   10.13595063033412    5.23695279460834
H         9.22014360682453    9.41174626016957    5.04354729773330
H        10.28246875436799    8.90937889395826    6.38885266003450
C        13.15276303696704    6.45231320505501    7.54473631453827
C        11.80602960104001    6.21341494559171    7.79423858206180
C        11.32059573569524    4.96975800665523    7.40799303713752
H        10.28346479766603    4.71663526830469    7.56263977511989
C        12.14060820431651    4.00852244058916    6.81661444070451
C        13.48353232060635    4.28595892383141    6.61109411619748
H        14.12664819308196    3.54544518574916    6.15677230228497
C        13.99181263058181    5.52207637318537    6.97353427274954
H        15.02383918420039    5.78965208949301    6.80526571905114
C        11.55340275035802    2.69135476738244    6.39880599161695
H        11.12633621510181    2.17967014852384    7.25960069879116
H        12.31175504865600    2.05253829927439    5.95328155938733
H        10.75914862879098    2.84594784208902    5.66918829327314

