49
CSD_code = VIPWOJ | q = 0 | S = 0 | Stoichiometry = C21H19CoN4O4 | MND = 6
Co        2.47014792035768    3.52505446679570   11.28951427713758
O         1.50195968894189    1.17114799767353   11.10712250376030
O         1.70288049676626    2.21154536987058    9.23768167576484
O         1.16921950555320    3.40639250849322   12.63963852985450
O         1.27472182188859    4.66762098226439   10.39109840190173
N         1.79875853001791    2.13541595402873   10.44058993495658
N         3.68975162569307    2.41577314740754   12.18671037089334
N         3.83532181110026    3.78336093275630   10.03211058471422
N         3.22706592812877    5.34062680831488   12.39139092994711
C         1.22206534401917    2.72242450322050   13.71645976353604
C         0.11213767280844    2.76607152817822   14.60498351441666
H        -0.72914349233259    3.37020183115520   14.30228905345912
C         0.10290852418439    2.07009074425667   15.77990916014474
H        -0.76087350814547    2.12219774599807   16.42734310386238
C         1.19831094118216    1.28130101783924   16.15842291459342
H         1.17350821984083    0.73332206199310   17.08771532476172
C         2.28738733486538    1.21092090252219   15.33520584199155
H         3.13827091522320    0.60238082301448   15.61076420946759
C         2.33903841686549    1.91740768909062   14.11655306429784
C         3.49098432510480    1.79685772407091   13.30276724711747
H         4.26880822097432    1.12023030168046   13.66425969558319
C         4.86715484567568    2.10442724527544   11.40331654985528
H         4.66593922090498    1.20241067610204   10.81049288001887
H         5.73580289848083    1.90931487430590   12.04334453815480
C         5.12196927216575    3.28281464655887   10.46477508353095
H         5.63792455714754    4.08011575807668   11.01588103451765
H         5.74635577011863    2.98576274241041    9.61390690523132
C         3.72429926986355    4.35465524991617    8.87988762260101
H         4.60277721660471    4.38936355362084    8.23123291363718
C         2.55134675468883    4.97091019364321    8.38082367249893
C         2.55693426090920    5.49817106270399    7.07444014050347
H         3.45684496886359    5.39376739117132    6.48343854620853
C         1.45928920712755    6.12295207409434    6.55047450516499
H         1.47662952779842    6.51663074368531    5.54584691298111
C         0.30166998971303    6.24442192980742    7.33092769510877
H        -0.56781082952958    6.73440390453563    6.91621390953960
C         0.25755102047077    5.74831771912812    8.60306163142338
H        -0.63100361328513    5.83293123555986    9.20951128567743
C         1.37102100159724    5.08448081171438    9.18552638341939
C         3.18206113192342    6.51708555896607   11.77487469766197
H         3.16526000970858    6.49718519379817   10.69444580206610
C         3.15856294458611    7.72624401201172   12.45002485269080
H         3.11596116960033    8.65176887048887   11.89778898277017
C         3.18342206997213    7.71802694482037   13.83490195807724
H         3.15523540734464    8.64066742268342   14.39556164188766
C         3.24961407361336    6.49491889641888   14.48126782382128
H         3.27964612964179    6.43234174404523   15.55766544296128
C         3.27073959317349    5.33827486798416   13.71945701749837
H         3.32637188808173    4.37228963584804   14.20077946833282

