41
CSD_code = VIPWAS | q = 0 | S = 0 | Stoichiometry = C19H19MoNO | MND = 9
Mo        1.83008598148562    1.41829236642935    1.96798711495767
O         3.18396367497518   -0.94477426328001    0.94471138554536
C        -0.37080622607297    0.70136101590278    1.76390093957001
C        -0.03095248737360    2.86208160500131    2.42341893979202
C         2.30463593917230    2.42371811423411    0.07278757834707
C         4.73019717705580    2.12185215628026    0.68871254704216
C         5.65580524655057    3.40467031170732    2.50032351996165
C         3.35861004702043    3.72927880491393    1.87227229672746
C         2.69208073177506    0.25153091273375    4.65598755203890
C         1.58942747133485   -0.51252782054411    6.67391662391975
C         2.46944763693857   -2.11071376465896    5.12875053322745
N         2.69030179403243    0.03999475213342    1.37423404568258
C        -0.01763309025701    0.69120344786233    3.14169393077181
C        -0.39235618452231    2.04360461557298    1.33360568295061
C         0.17910280671984    2.03735205713317    3.53947011065193
C         3.47923863635545    2.76257665952742    0.84923783770767
C         5.79270733976513    2.44051061459489    1.50122133719351
C         4.45044826469577    4.05485864876742    2.67080653220842
C         3.13893882399890    1.34554838511740    3.77160186279074
C         2.04032190250441    0.51279809957903    5.86350317414267
C         1.79210037876773   -1.83122057804062    6.30564359205395
C         2.91828786730887   -1.08605252530475    4.31917729593996
H        -0.10429895532755   -0.16012530824294    3.80629448133663
H        -0.73430514651690   -0.15026094064018    1.20251042470942
H        -0.74010570645810    2.38750224190222    0.36886063345349
H        -0.07754769466001    3.94389802574778    2.43653494634746
H         0.31897999242647    2.37475853823659    4.55662483854460
H         1.68858015281165    3.29111370378079   -0.17562906238020
H         2.51775013408801    1.84000920630078   -0.82163405782609
H         4.84571163442669    1.39362640392628   -0.10532408306330
H         6.74356379761774    1.94721093111684    1.36336995930548
H         6.49926019733411    3.65285586864774    3.12662107430526
H         4.35227333590762    4.82244798079588    3.42574553036882
H         2.46287934979011    4.34310594585979    1.92269212116752
H         3.12266336365455    2.28716631301055    4.33219289283816
H         4.17612501029324    1.16156566796703    3.47050164386343
H         1.89842033226920    1.53823760667987    6.18097202682705
H         1.08375142895318   -0.28088772803754    7.60108376894395
H         1.43871885235773   -2.63360839361617    6.93648747422371
H         2.65235596589342   -3.13668006634185    4.84363355732182
H         3.45857022290865   -1.32067961275483    3.41339739648843

