35
CSD_code = VIQCII | q = 0 | S = 0 | Stoichiometry = C18H12N2PdSe2 | MND = 4
Pd        0.00006483150289    0.00002088532034    0.00000145853652
Se       -0.61166360446941    1.90576117566488    1.35443763054023
N         0.28208612114690   -0.95124659500593    1.81280774734219
C         0.03218624539439   -0.31328532559890    2.99224434182095
C        -0.40200076235972    1.03617691429173    2.99584914993565
C         0.69954745019396   -2.20580349606305    1.85899048276020
C        -0.65645005783772    1.68221582219577    4.19153872255272
C         0.89244071546448   -2.91733051208330    3.04767372761087
C         0.20119693872107   -0.97044549561240    4.24775924532904
C        -0.07053701013642   -0.27790308028685    5.44148004167433
C        -0.49318554116335    1.02688922001514    5.40857371542166
C         0.64230498849384   -2.30682938737916    4.24500822671631
H         0.06250863878693   -0.79625474310175    6.37891997058522
H         0.77684841002321   -2.82291846631867    5.18406214741221
H        -0.98575119335312    2.71078851329045    4.16321723581959
H         0.90733229184141   -2.72045221008941    0.92605484850605
H         1.23474691487639   -3.93810867041162    2.99217478448487
H        -0.70045303733545    1.55486080954771    6.32736758314300
Se        0.61164385990200   -1.90576699818882   -1.35443789760654
N        -0.28208937237291    0.95124547364688   -1.81280783260597
C        -0.03219395755753    0.31328281839787   -2.99224453706014
C         0.40198933518914   -1.03618053653605   -2.99584929518232
C        -0.69954015559502    2.20580591440395   -1.85899028732146
C         0.65643574881824   -1.68222046859716   -4.19153883372992
C        -0.89242981820475    2.91733412825011   -3.04767356479559
C        -0.20120134920915    0.97044403176652   -4.24775937558183
C         0.07052788747140    0.27790003778737   -5.44148024600971
C         0.49317114079575   -1.02689394518119   -5.40857386259252
C        -0.64230153926074    2.30683053581433   -4.24500834702552
H        -0.06251683831277    0.79625201271722   -6.37892042532556
H        -0.77684362587357    2.82291950743480   -5.18406223854162
H         0.98573311274806   -2.71079437634985   -4.16321754122522
H        -0.90731393628154    2.72045805737908   -0.92605462651099
H        -1.23472724069440    3.93811533298399   -2.99217437405339
H         0.70043440864747   -1.55486688410402   -6.32736777502332

