57
CSD_code = VIQFAE | q = 0 | S = 0 | Stoichiometry = C24H14N6O12Zn | MND = 4
Zn        5.66645728904543    5.65782481091078   10.00553497428787
O         5.55977285287125    6.99657735516610   11.53859721342222
O         7.43469220305655    5.99653871126983   11.03164708934518
O        11.55580586867146    7.45784898915225   13.19208552636428
O        11.52374628012009    8.96320402306909   14.72385394003676
O         7.36501335831195   10.89716423756809   16.08831082821487
O         5.52528632997486   10.19467119784377   15.23039557492599
N         6.47043567869564    4.06444326547994    8.95835479597280
N        10.98970498673461    8.25147995770809   13.90627608506979
N         6.72963224579596   10.20578081058085   15.32779885027555
C         7.38844137637181    4.17196530002355    8.01528504798648
C         8.08167356110693    3.07460081491311    7.52604396196075
C         7.80283866075447    1.82776439426337    8.06189039561023
C         6.84117615681326    1.72062823233132    9.05360102151012
C         6.18258181863447    2.87115703236024    9.48142711238724
C         7.50858209414969    7.67222687613199   12.70825627024240
C         8.88894090103936    7.57546941033218   12.83178580295788
C         9.54588362963807    8.35504703410543   13.77418536771671
C         8.85405229892249    9.22899780982683   14.60005785101542
C         7.47586377701741    9.30656294247573   14.46314132023983
C         6.79610759870490    8.54141887193263   13.52479847002811
C         6.78969027890540    6.83645633100555   11.68840920932006
H         7.56748451587668    5.17261891913282    7.64927036359282
H         8.82426517197069    3.19782889672380    6.75453735734869
H         8.32910674081536    0.94969052865610    7.71883279784758
H         6.62656835320333    0.76224115467745    9.49759180898637
H         9.43921627785622    6.89834198010750   12.19486398592254
H         9.37438345724560    9.83166306491359   15.33145103649007
H         5.72331188208685    8.61896650974903   13.42393049480609
N         4.86221277979280    4.06538295269293   11.05394480994982
C         3.94421363072520    4.17379052704749   11.99691490555208
C         3.25095190541224    3.07688772509868   12.48714692637284
C         3.52975972907131    1.82956086603575   11.95242883852402
C         4.49141887987008    1.72149911856837   10.96081332747373
C         5.15003652363419    2.87162684986936   10.53194450681606
H         3.76522850663856    5.17478148345395   12.36203235130517
H         2.50836287548630    3.20084092760976   13.25853979962103
H         3.00346529299153    0.95181334839911   12.29628015064155
H         4.70599609529096    0.76270379256336   10.51769021710104
O         5.77313254568221    6.99606513739741    8.47206804512451
O         3.89821645794061    5.99620041518099    8.97932714333444
O        -0.22285030311517    7.45547258065696    6.81774370659503
O        -0.19133250294527    8.96211019625757    5.28723054046767
O         3.96630471985673   10.90123721882876    3.92688136106949
O         5.80631629466135   10.19908788976286    4.78448777149110
N         0.34294300302111    8.25008450098595    6.10439217989372
N         4.60202386312180   10.20910487155304    4.68643256341898
C         3.82404829360916    7.67232786194874    7.30317814999293
C         2.44381193356100    7.57463753205827    7.17902519148777
C         1.78662569194884    8.35464494110739    6.23715720942515
C         2.47809293554224    9.22998851732459    5.41245622416062
C         3.85616783161523    9.30845323189149    5.54996289760100
C         4.53617524706963    8.54285971259731    6.48775574207949
C         4.54308427448813    6.83641492309554    8.32282163181099
H         1.89381692568053    6.89653031698078    7.81514361587198
H         1.95758651659076    9.83300164342413    4.68147598551312
H         5.60887440836127    8.62111145521687    6.58910965342878

