85
CSD_code = VIQGEJ | q = 0 | S = 0 | Stoichiometry = C38H41Cl2O2PZr | MND = 10
Zr        5.55607927100422    3.81331798773711    1.58008947439440
P         3.19926389373723    3.58989401990880    3.04314787628540
Cl        3.96589608227912    5.24688726480839    0.55662999862029
Cl        4.42721466758668    1.90432943177064    0.67079168967486
O         5.68185984119977    5.06566792558622    3.07148751210062
C         1.43191719846124    3.79777017674284    2.59877476458191
O         6.03919751297781    2.35271819545160    3.24111807219301
C         7.17310416560978    5.07314082858362    0.37435983072818
C         1.03994452318342    5.00475805610296    2.02136331396879
H         1.76878381442209    5.78747139157559    1.86946551250514
C         3.47949080224843    5.14433323430880    3.95602594694846
C         7.33447642547567    1.50759274048101   -0.76406993697565
H         7.82434395445573    1.63690804561189   -1.73135267222912
H         6.31581402310758    1.16562519804665   -0.94989492753036
H         7.86499811573861    0.72569912565655   -0.22371015784723
C         2.90838122065208    1.02234042414698    4.00068027043644
H         2.86638613513149    0.79311331151353    2.94194239731682
C         3.04784521059173    2.35373660467525    4.39655759133356
C         4.76641013395948    5.69830849910210    3.78345713901452
C         8.08741632750105    3.11092372699890    1.16305832528223
C         5.04206188534804    6.92768461578394    4.42032778777533
C         6.36967015220818    7.56570800553353    4.26865582604534
C         9.06821342570725    2.20495341928452    1.85903122693503
H        10.07975942662117    2.41504151903850    1.50116217073454
H         8.86374625717943    1.15571498543205    1.65396157465978
H         9.06674496993948    2.35643969749064    2.93844070673784
C         6.91470158507501    6.54723863665511    0.22078371080033
H         6.60071079879828    6.97663710053302    1.17530358651863
H         6.13643963835937    6.73829816167410   -0.51697913551904
H         7.82505074905798    7.06173650096550   -0.09929597444222
C        -0.27140220323784    5.19915440816780    1.63185094887089
H        -0.56162416554307    6.13885624650823    1.18553750474218
C         2.80976920223890    6.98502480425272    5.34663584383790
H         2.06531915556704    7.48525479876137    5.94695653301226
C         7.98474520408381    4.50638827654130    1.39598700708460
C         8.71829708073589    5.29249583407051    2.44472216957802
H         9.15855852749474    6.18839051105925    2.00617274714922
H         9.52092228989305    4.70268012498596    2.88448258607481
H         8.04392886276125    5.61621415887458    3.24052032065453
C         4.06640641734299    7.54732964784745    5.18226890688585
H         4.30302816455323    8.49074940358226    5.65411757490219
C         0.48780112128597    2.79058966392913    2.76524213913487
H         0.76596319574664    1.84631842346721    3.20865487191017
C         7.34984325722443    2.80775929347000   -0.00977082284985
C         6.49159091674094    2.71626048228370    4.55603031785250
H         5.76989086516187    3.41072740356335    4.99785290744219
H         7.46312268855032    3.22136200285670    4.46661237534207
C         3.04962831337316    1.63794749800784    6.69331788023884
H         3.10746242794940    1.87899466031015    7.74513061792151
C         2.89204390945951    0.32096125376982    6.29342008301139
H         2.82642505456900   -0.46449932805414    7.03183813470095
C         2.51768720226820    5.78562091261132    4.72723302259394
H         1.53843034351608    5.33846035485041    4.83063510417283
C         6.57499186056887    8.52614720773760    3.28517270364328
H         5.75604255530599    8.79860994084302    2.63468791139891
C        -1.20900269570825    4.19448255237176    1.80738829158297
H        -2.23364061007665    4.34673543627160    1.50133660605244
C         3.12853362016665    2.65104515381653    5.75178323291374
H         3.24618527025203    3.67673727406058    6.07283471510703
C         6.15576280227669    0.92270603777730    3.07481526184624
H         6.60452793577471    0.72571409917727    2.09767556533765
H         5.14906959058887    0.49087444074638    3.09478029415939
C         2.82231413005194    0.01368796804092    4.94321265935567
H         2.70388892395914   -1.01294645893249    4.62758997441000
C        -0.82447456213693    2.99218254325571    2.37453279707485
H        -1.54890209696512    2.20258404781188    2.51413207861325
C         5.98082790914507    4.11525834414619   -1.77167214203827
H         6.62216913387725    3.91647785535460   -2.63417328347100
H         5.54666748082420    5.10734589664583   -1.88866141450114
H         5.16778138130635    3.38311853893523   -1.78245698810143
C         8.85197495882461    8.78913132983481    3.99497762112380
H         9.81615938136972    9.26427384052435    3.88894435919469
C         6.77207505837152    4.01234792506775   -0.49565906037372
C         6.98247916602183    0.41772458061131    4.25202041018208
H         6.73070390265737   -0.60691895974059    4.51326346919586
H         8.04899141959470    0.47350385994353    4.03416459754721
C         7.81205622932805    9.13057057924756    3.14680384396847
H         7.96371825571152    9.87260931954530    2.37648081889276
C         8.65181918649828    7.83989662302994    4.98268076020472
H         9.45950097122817    7.57418464771547    5.64951760551635
C         6.60686567295249    1.41520217381591    5.34379372281003
H         7.34794603991911    1.48007584548111    6.13684275390996
H         5.64215818718598    1.15293309256025    5.77887414153113
C         7.41780376501843    7.22740978423358    5.11681977168230
H         7.25794513678436    6.48476481313158    5.88693464582366

