87
CSD_code = VIQGIN | q = 0 | S = 0 | Stoichiometry = C36H45Cl2O2PZr | MND = 10
Zr       -0.62489701932604    2.25617707021030    6.25534354286944
P        -0.99600386909440    0.47010976768655    4.15221868875704
Cl       -1.99499449035398    0.43420151438104    7.05283084788274
Cl       -2.47402568478429    3.10294380287436    5.03545405231745
O         0.52580969106700    2.80892429410341    4.77722042061132
O         1.04269547690856    0.69184284151553    6.44541752054954
C         0.49020299055848    2.65040548571852    3.45724375734473
C        -2.51795620922685    0.07404016482824    3.20646702528601
C        -0.13488164549061    1.50180708653391    2.92485522794450
C         1.07445559600104    3.56888743096168    2.54600163282429
C         0.58398666998107    5.62824106094045    3.80802750336085
H        -0.20582284239449    5.90932722492906    3.11381517265599
H         0.98648151831403    6.53614191709887    4.25484400365397
H         0.14459556808386    5.00098700930744    4.58343226386922
C         0.72191738467478    2.92229880916294    8.41439521430893
C         1.04829263223013    3.26600716443711    1.19519658277030
H         1.49626928570693    3.94727207895485    0.49074592675104
C        -0.11856115787630   -1.14164454719848    4.03769516269797
C         0.94549539382917   -1.39827562552187    3.18079947615377
H         1.28376650952951   -0.63414898346798    2.49511198144160
C         0.61269447676420    4.06560464810981    7.57308443619825
C         1.03427363651156   -0.40360483973845    7.38555848307716
H         0.39973705070356   -1.20275957893271    6.98610785566687
H         0.60542917066164   -0.04446642499290    8.32311291195046
C        -0.15895089296666    1.24125270367244    1.56012888559790
H        -0.66706887856008    0.35901941217617    1.19544835386702
C        -4.33811857055332    0.87911523427573    1.84975426264736
H        -4.82708486660972    1.69357426209262    1.33581371070927
C        -0.76912838275923    4.38568225024954    7.44141024622608
C        -0.58287900667002    2.54018634368572    8.81864646538787
C         1.77351162149765    4.96507591780143    7.25259379595922
H         1.98125388383866    5.60845514912615    8.11311808553074
H         1.56776636736679    5.60346850302366    6.39942763134799
H         2.67740674171375    4.39291475289586    7.04785615400158
C         2.21584719820300    5.77361016259014    1.94575483327738
H         1.42515882111017    6.05608829142026    1.25495931407143
H         3.02113603706385    5.29553184749242    1.39234399383590
H         2.61177911711271    6.68385340300148    2.39246039099587
C         2.85535468008145    4.51561887529425    3.98459373000802
H         3.28063353541550    5.41721808080609    4.42088294308046
H         3.63402405937169    4.00434627224474    3.42017453725680
H         2.51512595094117    3.85968309679504    4.78067537291901
C         1.68370512456972    4.86459298609999    3.05777484128060
C        -0.52470292044957   -2.13600778185327    4.92955252820383
H        -1.33395460471621   -1.92520423214564    5.61859728351156
C        -1.50594055462821    3.42194927300894    8.19565743344465
C        -4.89108937253839   -0.39082754386995    1.82351727109707
H        -5.81157085705254   -0.57246357431438    1.28825227201293
C        -1.36235418211002    5.65012049759180    6.87661059203681
H        -1.96268210765847    6.14135590267276    7.64504957942190
H        -2.01376541584073    5.45260875239420    6.02210394649557
H        -0.58175622655446    6.34153580687499    6.56725401047469
C         0.45502257392148    2.11679130322308    0.69290363197709
H         0.45909700410572    1.92647208651311   -0.36971861378976
C        -3.16240366285915    1.11322584825204    2.53648263872212
H        -2.74338604455514    2.10903430228081    2.56043900373093
C         2.28266466828316    0.67748194834328    5.71700871229697
H         2.87466476995850    1.55177734357583    6.02054205492079
H         2.07072554782268    0.74982749604772    4.64546041308571
C         2.02542699780832    2.45692382332396    9.00596554596172
H         2.40904749428905    3.21691055700937    9.69186245214451
H         2.78759772886755    2.29915950311093    8.24137349594424
H         1.90607769150338    1.53556066477981    9.57245065397639
C         1.57286357134836   -2.63318927296070    3.19724851208831
H         2.39548587643045   -2.82404038706724    2.52288494039625
C         0.09929026676663   -3.37062353063552    4.93846049264102
H        -0.22943863940004   -4.13652086799773    5.62613743717122
C        -2.99436342098906    3.43900217176035    8.41359825929929
H        -3.25162654096271    4.08707367370993    9.25639241009802
H        -3.36341132135968    2.43654169855292    8.63238884555988
H        -3.51054213574870    3.81206930628059    7.52714161228520
C        -3.08238331949726   -1.19642655301723    3.18230744041429
H        -2.60423744023212   -2.01786865042271    3.69396153884505
C        -0.94792361019605    1.56217107776915    9.90318834790519
H        -0.06080161848303    1.12695866697241   10.36063344633694
H        -1.58094448168676    0.75529528159028    9.53193621245897
H        -1.50144193334419    2.08329077526243   10.68605610531854
C         2.47911644162178   -0.87314303923327    7.50016155599162
H         3.03192470028181   -0.26610772081201    8.21750338434531
H         2.54520125336129   -1.91698746907643    7.79556274856763
C         2.98966536369237   -0.62405693683907    6.08432748509814
H         4.07159429854223   -0.53098240966357    6.02905128392758
H         2.66770995344886   -1.42729819326548    5.42134413443957
C         1.14919225482206   -3.62265641014228    4.06921968363640
H         1.63869058934794   -4.58539314037024    4.07457588252146
C        -4.25911406297823   -1.42527391484215    2.49088941077252
H        -4.68405724549361   -2.41877304897786    2.47726668524315

