55
CSD_code = VIQJUB | q = 1 | S = 0 | Stoichiometry = C18H28ClN2NiO5(1+) | MND = 6
Ni        1.35236122580151    5.66863694269931   13.01403800928370
Cl        3.30356178775079    6.15267846216136   13.59450839499153
N         2.71443227156118    6.12283973406095    4.91927020875961
N        -0.76689206387797    5.02533515433242   20.93082500774873
O         1.74365143619007    5.79395567545202   11.22053952117143
O         0.79609769388638    5.55227598204472   14.75722803189744
O         0.55426138540867    7.99249151633613   13.05936074293803
H         0.49628019363042    8.16670074387047   14.00487935906213
H         1.33075985775809    8.46989411684030   12.74738491378825
O         1.49031226838496    3.28372771782204   12.91219397180184
H         2.37817583869195    3.06352730178201   12.61202150570890
H         0.87660437663359    3.03233744529482   12.21532539366421
O        -0.73417154879576    5.35858137406591   12.40502792775057
H        -1.24883231971054    5.24179740429835   13.20970077512328
H        -0.95206600462684    6.22818499631612   12.04976777659359
C         2.64850046034988    6.27396602043572   10.51718133991542
H         3.51377402395598    6.76173798388949   10.98772299735812
C         2.65539162363243    6.22900737459784    9.09618890612173
C         3.72611432522133    6.78411744164498    8.36970070450480
H         4.54284702728972    7.24183223800235    8.90760067020801
C         3.74809491327654    6.74964011835943    7.00425433395053
H         4.58718463371585    7.18638682775892    6.49064820472143
C         2.69475342965377    6.15636960929834    6.26590211708193
C         1.61974740026530    5.60034590161239    7.00272353153116
H         0.79537464950346    5.13723294290405    6.48785037493185
C         1.60411660944047    5.63694052543077    8.36738845498756
H         0.77703980464404    5.21025579406992    8.91477814557356
C         3.82232196880538    6.68554511415838    4.18142121852673
H         3.91617425608845    7.75770760710402    4.37099007137374
H         3.66123045427282    6.54334518864439    3.11666213411622
H         4.76102644563886    6.19565850085888    4.45069873107153
C         1.62708047616664    5.52653174520203    4.17768031715164
H         1.52383030964458    4.46521942202839    4.41718289881606
H         1.82040203363326    5.61496100076543    3.11247666327015
H         0.68234024591397    6.03127762895378    4.39372175331234
C         1.27300226167696    4.91712901194222   15.71471587949152
H         2.16875270194855    4.29967144580510   15.57792008878192
C         0.73120098219870    4.93860548373469   17.02891790395881
C        -0.40609575240519    5.70348205440580   17.35770377847798
H        -0.88412591550382    6.27928832878203   16.57923891830485
C        -0.90065684548420    5.73220891246991   18.62997756309846
H        -1.76811695805715    6.33627828191941   18.83470753806289
C        -0.28849512577367    4.99275423996568   19.67201992749438
C         0.84900493315933    4.21933362423161   19.33442031362186
H         1.34597290043603    3.63413230102932   20.08884882807094
C         1.33810386041756    4.19503329699852   18.05923975274943
H         2.20858475895009    3.59872237873205   17.83104175847086
C        -0.10983030496741    4.29519280976560   21.99085088325419
H        -0.14125390491933    3.21856193025444   21.80526113308867
H        -0.61178058421823    4.49114209101162   22.93402815139945
H         0.93249580982040    4.60623036578997   22.09109747135548
C        -1.94484734228205    5.79640245716768   21.25594421227398
H        -1.77742167219698    6.86274478251059   21.08352507048966
H        -2.19313018088752    5.65825151705912   22.30434666106371
H        -2.80114511175327    5.47189113333113   20.66014905761403

