57
CSD_code = VIQLAJ | q = 0 | S = 0 | Stoichiometry = C24H28O3PRh | MND = 4
C         2.28128133397167    6.99183479615503    1.37122692958124
O         3.36984155024272    7.24577258054733    1.09831432337813
P         0.63885420510707    8.35751744146581    3.32137613226207
O         0.41194363812714    5.02681603995606    0.60199763635202
O        -1.25993443489359    6.17949866173744    2.54169090292516
C        -0.56149868823363    4.23661646613069    0.48339450230106
C        -2.03058692505770    5.24185212622402    2.18176358220436
C        -1.75841398802939    4.28476942347177    1.20766212790477
H        -2.51030580209690    3.53960596735259    0.99967595685063
C        -0.41683316709552    3.13175144375862   -0.54199517439811
H         0.53411294181047    3.23481158013572   -1.05783653064374
H        -1.22933573296725    3.18073307695580   -1.26352762172403
H        -0.45564325761069    2.16244025559617   -0.04922454375436
C        -3.37577323565736    5.17461478425302    2.87599962145212
H        -3.43022931381003    5.93511391143549    3.65120687616119
H        -3.52098149316917    4.19330239110442    3.32178794387522
H        -4.17344069423870    5.34295318119603    2.15501317688156
C         1.36980863390117    9.89288355000309    2.66467157014411
C         1.61262383998662    8.03522285723408    4.82496430712094
C        -1.00430482361760    8.97020441340602    3.93785484325018
H        -1.48226601785309    8.09869965975994    4.40180110610111
C        -1.84008842481951    9.38386123269598    2.72662488267738
H        -1.37275496606064   10.24454789580722    2.23978856408382
H        -1.86880604215325    8.56171958864594    2.00485319739266
C        -0.93722509108009   10.11741039726364    4.94111885093021
H        -0.33177029159589    9.84081337889909    5.80728451513788
H        -0.47463582504363   10.98689068887897    4.46836928927755
C        -3.20664460245430   10.88615289158131    4.19137030271174
H        -4.21802243751418   11.13161530667045    4.52229647506709
H        -2.78100342579960   11.77825776809896    3.72597802975006
C        -3.25269486661612    9.75696538932877    3.16537515443942
H        -3.73931684045894    8.88430007494674    3.60730895450128
H        -3.84245091803133   10.06499528939254    2.29953368734032
C        -2.35025705949998   10.48769064753769    5.39020926162702
H        -2.30535920307782   11.31213151908007    6.10511916556526
H        -2.80786932666055    9.63331656529253    5.89506528239961
C         1.02929762557832    7.51056209611060    5.97427705722518
H        -0.03861058130629    7.35152436380550    6.01238486514110
C         1.81201461952622    7.18146023156666    7.06669689458854
H         1.35003620467648    6.78279013084141    7.95842427868107
C         2.99808904997760    8.17473078386344    4.77114063595914
H         3.45840199397775    8.54296788850382    3.86450700207475
C         3.18491177515162    7.35552594209548    7.01751360317022
H         3.79372267822379    7.09926158667782    7.87192850423231
C         3.77711269930562    7.84465304691762    5.86387637204881
H         4.84964668859202    7.96310837110626    5.81540833012649
C         1.95576526806320   10.87456005877011    3.45646125282634
H         2.04359372512722   10.72676241585636    4.52354157973020
C         2.34128555617278   12.22374488672117    1.50732473307193
H         2.72412810457479   13.12895029477487    1.05955558483343
C         1.27365236921476   10.09055889296657    1.29043563417232
H         0.82178156486463    9.30898068642098    0.68479847046458
C         2.44154236632690   12.03307814157353    2.87581386199983
H         2.90105670491431   12.79068963527469    3.49406447304086
C         1.75580939456396   11.25059875882049    0.71313127512835
H         1.68099074817957   11.39630660001162   -0.35438048274150
Rh        0.57375219632154    6.61770194531318    1.89458279308824

