100
CSD_code = VIQMUE | q = 0 | S = 0 | Stoichiometry = C47H44Cl2N2O4Ti | MND = 6
Ti        0.18892160096975   16.87451806817586    0.47758099430313
Cl       -1.72826708480604   16.41008427653860   -0.73252392470762
Cl        2.25369275019439   16.57585264728260    1.43888068240425
O         0.49390563136000   18.41323238702416   -0.15370508512514
O        -1.12034434334790   21.26120829090710    1.39225141556753
O        -0.32776986763124   20.44797581895694    3.37561388489004
O        -0.65182285466392   17.15413854945610    1.91933156037779
N         1.10124582007819   16.00750825205742   -1.32557218456286
N         0.12213399663745   14.72011437349413    0.85118247396183
C         0.13985898721327   19.74979503813263   -0.09464022520098
C        -0.79669210041749   19.91552639717376    1.14332770315301
H        -1.71436706306353   19.33834386090396    0.93321784806517
C        -0.15252816002666   19.40715780691233    2.44711849398708
H         0.92206047120334   19.21407221639264    2.28101694165215
C        -0.79247206548052   18.07337859864655    2.94443030874727
C        -0.83952605704761   21.60455620264258    2.73848400918178
C        -2.13597469643549   22.04946232829568    3.42384162051936
H        -2.89739024051743   21.28479705087728    3.29932030540402
H        -2.47963320809363   22.97549684813886    2.97342147787693
H        -1.95156094698057   22.19967473137588    4.48275842054250
C         0.20827241367219   22.72223145338515    2.79736536228681
H         1.15384724411681   22.36247447987118    2.40238094834373
H         0.34541879488746   23.02885353979771    3.82985758712671
H        -0.12788709671628   23.56601904873258    2.20328494172693
C        -0.55878792979465   20.08574554552992   -1.41168231039412
C         0.21311837889722   19.97448530332420   -2.56636677412335
H         1.26671874590924   19.74249044298969   -2.47141425321569
C        -0.34507662036971   20.17974849177346   -3.81401864529400
H         0.26558158552608   20.08306701094394   -4.70051568312536
C        -1.68450364784183   20.51404606057292   -3.92366777007397
H        -2.12595033606157   20.67316362252186   -4.89647269927434
C        -2.44938619380925   20.65268014628848   -2.77990722456047
H        -3.49116995846230   20.92672586955355   -2.85841193744286
C        -1.89441016473185   20.43796495542285   -1.52802654623528
H        -2.50544266745454   20.57061916039926   -0.65013446900878
C         1.36667892886487   20.64217320401605    0.04142819302430
C         1.26846413821066   22.00071327890747   -0.23724804818452
H         0.31748951051070   22.41328917025862   -0.53773434470167
C         2.38106956032098   22.81483430867096   -0.12015021611313
H         2.29751412496418   23.87007340772113   -0.33591423337332
C         3.59860335364534   22.28102612603811    0.27013684230179
H         4.46581093284598   22.91903500934414    0.35983643870355
C         3.70101021217596   20.92670470901390    0.53723784855270
H         4.64756741018004   20.50080642570212    0.83571608771375
C         2.59106690873198   20.10643855145145    0.42062376592984
H         2.67741629596286   19.04245558786356    0.60828926466136
C        -2.25930184599780   18.29481632643888    3.28770668937504
C        -3.25647263671732   17.87017502860307    2.41834652123344
H        -2.98572674649239   17.35611948629226    1.50308129744290
C        -4.58829800249708   18.08271641656917    2.73232031966552
H        -5.35614942404716   17.75078736276564    2.04911442225680
C        -4.93268771388434   18.71411881617824    3.91512005478573
H        -5.97206629581234   18.87995953878933    4.15878203593309
C        -3.94019089105942   19.12617472958995    4.78954326277000
H        -4.20468207798183   19.61344281742571    5.71681290513995
C        -2.60762571377526   18.91583703240317    4.48124325962797
H        -1.83081898049059   19.23722487622687    5.15804543012145
C        -0.07891777712489   17.48797863974293    4.16216518651266
C         1.10255908748866   17.98185032059655    4.69367508286174
H         1.54056929974182   18.88875866546751    4.31090662684599
C         1.72135370154081   17.32216943782987    5.74381138448210
H         2.64246121450769   17.71529501821772    6.14780630631021
C         1.17491970675207   16.16599605086160    6.27083670922589
H         1.66755471895118   15.65221319840041    7.08351954784905
C        -0.01307968064710   15.67501369741752    5.75544480890793
H        -0.45745179629602   14.77909105824692    6.16594684414053
C        -0.63580186648303   16.33428028733255    4.71165587284104
H        -1.57407303619460   15.96321647810253    4.31866864455427
C         1.48478266835817   14.63057501267731   -1.12797576280442
H         2.40160845438507   14.64737086216103   -0.52226134972868
H         1.67079882976970   14.09535615130755   -2.06935579099841
C         0.38438143976667   13.92147949524422   -0.31967235583931
H        -0.53614085038474   13.89073930530870   -0.91795195080848
H         0.70654193996634   12.89939670629540   -0.07484513993383
C         0.94980423232080   16.50184642591440   -2.48196235939728
H         0.69729282154545   17.56161526148879   -2.52077267260390
C         1.06104431803513   15.82598206400811   -3.78420026460491
C         0.24203496963235   14.74225813645363   -4.09595525387807
H        -0.48809624922930   14.40545019695971   -3.37466463324708
C         0.32623694614232   14.14447599272257   -5.34051653633533
H        -0.31824373560206   13.31161430211919   -5.57886761531721
C         1.23199161051450   14.61202308104149   -6.27826050072790
H         1.30036840273882   14.13910416761987   -7.24638446771188
C         2.04064639851105   15.69647974219644   -5.97779205844942
H         2.73894797669857   16.06965102860492   -6.71194555166277
C         1.94787170899324   16.31091881434723   -4.74278137124479
H         2.57455499760198   17.15807768235348   -4.50570885533539
C        -0.03128188185623   14.21615566542332    2.00475089795118
H        -0.12326081608937   14.93116903494414    2.82246743091280
C        -0.04883760760014   12.80658931118565    2.40540913740603
C         0.65478791643866   12.45059327905387    3.55803762207685
H         1.19416721413532   13.21369328917712    4.09983430858079
C         0.68188629422306   11.13552721310103    3.97927899488856
H         1.24134839290693   10.86505784027619    4.86217109216505
C        -0.01809813655919   10.16558490050403    3.27767046511475
H        -0.00342216062179    9.13951524079418    3.61321890158174
C        -0.74834651462646   10.51660830380814    2.15460274936130
H        -1.31054588271512    9.76627303756946    1.61895998397107
C        -0.76122628671230   11.82795756342097    1.71295690735613
H        -1.36067514746499   12.10336695497172    0.85793394002937

