44
CSD_code = VIQMEO | q = 0 | S = 0 | Stoichiometry = C20H16N2O5Zn | MND = 5
Zn        2.70762830884804   10.53435473753983    3.72194376201986
O         3.54225926569424    8.91571898574822    4.28317700771203
O         3.60864676187750   11.70218743844878    4.93014920606634
O         5.74272651816273    4.75088093629632    4.11063324711389
H         6.07728975832780    5.06691648984506    4.95942044767581
O         6.02722284942274   15.40054023999048    6.57066738833540
H         6.32688879692632   14.73016850025495    7.19761336470068
N         1.95917112734185    9.57619400028607    2.11685480096629
N         2.03179251266708   12.13583404603789    2.70497229655690
C         3.77554892570132    7.83551418501225    3.63072640943335
C         4.63553413840882    6.86678508746380    4.19877775043890
H         5.07445102606905    7.09813287378071    5.16016115634808
C         4.91939260194643    5.67989949699000    3.56751393398880
C         4.35111480252468    5.38934713233556    2.31219270536887
H         4.59070883230740    4.45122969948244    1.83977037275590
C         3.52183066508547    6.30346171908322    1.73292582411800
H         3.08417498276655    6.08947266023659    0.76776553059527
C         3.20205000134800    7.53175499788604    2.35138493554386
C         2.34070785526840    8.41825952689646    1.67231101030876
H         2.00034537685771    8.08730580305975    0.68674003105613
C         1.06558858572351   10.38100843172128    1.43572517490740
C         0.11120637252707    9.91686966717701    0.53238744865754
H         0.04043143941595    8.86083471760836    0.31951014461323
C        -0.77380044527455   10.79287419042620   -0.06586780449183
H        -1.50855202566859   10.41907083340426   -0.76296179949132
C        -0.73553904380530   12.14328093227608    0.24488822566568
H        -1.44057684096397   12.82297971507778   -0.20950002211722
C         0.18820259702719   12.62084952921512    1.15433842261312
H         0.17741978236463   13.66583601001413    1.42534544518356
C         1.10493668443440   11.75793361624027    1.75204421662722
C         2.48328236770794   13.34851778873301    2.80264934160057
H         2.17759719831457   14.09226547750139    2.06091956667015
C         3.37944918169150   13.80323305582774    3.79211693759788
C         3.77657768633780   15.15780672223670    3.76489871975479
H         3.37037545902068   15.79272713677182    2.98981526147436
C         4.64156865431205   15.68259270831263    4.67885529641755
H         4.94031416537443   16.71747225074358    4.65812436366978
C         5.16781832620306   14.84591163260237    5.68196133596617
C         4.80933203677504   13.52071842082596    5.73779316480450
H         5.21601090162785   12.87175741475145    6.50192678286019
C         3.91131434295614   12.94345706923287    4.80990669312312
O         1.30102485259953   10.18918249851860    5.37161383087817
H         1.69587839779345   10.83107604972138    5.97466475941867
H         1.67005421595207    9.33818557438665    5.63854331249294

