61
CSD_code = VIQMAK | q = 0 | S = 0 | Stoichiometry = C26H22N8O4Zn | MND = 6
Zn       -3.11200765413239    9.84237744350018   17.68413065377162
O        -3.45895796491803   12.10004691902171   22.50969108243062
H        -3.60980923468468   12.09021429786122   21.52825459868626
O        -2.58664645240293    9.24901422084526   19.56503289781423
O         0.48475340407474    7.57256798758492   14.45692112723026
H        -0.38535889933659    7.58682422989831   14.93533642062320
O        -1.29496054322627   10.42331200963868   16.95988072586746
N        -3.41063283214257   11.33305910287455   20.05754524863054
N        -3.69452925114852   11.39700444573426   18.74361957724422
N        -4.43226714229825   13.62209285059598   18.88534798880036
H        -4.04276427711937   13.62206026372181   19.81821222525495
H        -4.34068104644069   14.49808689433575   18.39810147694481
N        -4.10365710046948   11.17707770976894   16.20445335497387
N        -1.42341388749704    8.34562510504414   15.99474708033045
N        -2.63913374930243    8.28890900423555   16.56911551958733
N        -2.99521770629677    6.06992996465844   15.88698961878418
H        -2.01821739807895    6.06278439675537   15.62743854109697
H        -3.33314190129994    5.19512918065570   16.25265673613105
N        -4.90052849856968    8.52282933058645   17.79125792377240
C        -2.82824869951278   10.94902629034940   22.79666941298094
C        -2.51488142956285    9.99023662589432   21.81616101208011
C        -1.85982292537947    8.81961815792104   22.20009405746461
H        -1.62698740705679    8.10260452127026   21.42722044831638
C        -1.51756315423424    8.58875500388772   23.51471732732258
H        -1.00841617908520    7.67844925462040   23.79330250717180
C        -1.82993859436151    9.53810238171292   24.47869089177408
H        -1.56485276605956    9.36766646334096   25.51202595524316
C        -2.47745279893175   10.70285103142413   24.12449835277143
H        -2.72621719991110   11.45091290928666   24.86139094490145
C        -2.84357674295952   10.16505653171637   20.38748915076554
C        -4.13999821825313   12.47224955019069   18.18676023493247
C        -4.39616629373191   12.36320859159446   16.75521958221102
C        -4.90685879269922   13.41098901155075   15.98258097491870
H        -5.16819756620470   14.35388565301314   16.43614997154002
C        -5.08487002893669   13.21964925419648   14.62561116685959
H        -5.47332262041224   14.01721558633906   14.00938188771092
C        -4.75711254754606   11.99229487679102   14.06802118849220
H        -4.87453591174839   11.80746339367901   13.01263209164514
C        -4.27504224292159   11.00106470949965   14.91039191662500
H        -4.01397183902694   10.02300320148957   14.53032947394793
C         1.10677884065621    8.71577938480255   14.79026527206936
C         0.52829268925104    9.67413141596538   15.64219846848011
C         1.24205864275623   10.83649553909559   15.93595548823974
H         0.77701322677732   11.55331535435602   16.59592381470521
C         2.49542181723178   11.05965183956503   15.40875317369290
H         3.03457428322991   11.96350605152330   15.64928257791055
C         3.06150170706345   10.11079823891090   14.56773039404095
H         4.04428050123022   10.27513138776026   14.15031315682845
C         2.37590974115521    8.95418260304504   14.26180939470662
H         2.80241550076339    8.20663375595477   13.61084427785187
C        -0.80666010476376    9.50710466506882   16.25013394369448
C        -3.36135101703982    7.21997870971824   16.54952695060067
C        -4.65227585548165    7.33733619756795   17.21786916975417
C        -5.58585608209937    6.29785444302753   17.27701117992253
H        -5.39341584433812    5.35559357282640   16.78896574487063
C        -6.76958867718067    6.49676814297416   17.96177217346025
H        -7.50254848238572    5.70578174030191   18.02376670415889
C        -7.00156125031695    7.72327321888662   18.56724824731795
H        -7.90922792570032    7.91388318213382   19.11643140589999
C        -6.03038741865001    8.70607644002228   18.44299938270807
H        -6.16406819835630    9.68307575939645   18.88662773144047

