105
CSD_code = VIQPOA | q = 0 | S = 0 | Stoichiometry = C40H48N4O8S4Ti | MND = 8
Ti        5.65943795842357    7.33697941764365    4.11906312280977
S         4.38714600625848    5.75098047363215    2.39883035957453
S         5.43799558025420    8.49166400441747    6.52242444383594
O         5.75034352929312    6.28002178932983    2.19892234948328
O         4.20639177743742    4.33172451379326    2.51883455847841
O         6.58386337437232    8.71169743025811    5.62478387048900
O         4.58652803827830    9.60355732612511    6.84060141962219
N         3.84782710123334    6.68807093992084    3.54544310872200
N         4.78375357551191    7.19547142946554    5.90419027965189
C         3.06896444214442    6.15230620819341    4.63463019062565
C         1.56434427544186    6.08430298710720    4.37153553881751
C         0.87114397428574    5.54185568463643    5.62185453599757
C         1.18552483879540    6.39452368426135    6.85183940778640
C         2.69221434269929    6.50195179456911    7.08946661215681
C         3.34831924689857    7.07102186233564    5.83130367452755
C         3.51009305256354    6.27162448201276    0.91767915860410
C         3.54504904808745    5.51713715767166   -0.24176025946732
C         2.88706854813026    5.97024090709229   -1.37198106737741
C         2.18530936177437    7.17289212271517   -1.35176043072821
C         2.15371610267969    7.91246248850078   -0.17500723294983
C         2.81823152342757    7.46848357321130    0.95657923313771
C         6.19054333529112    7.94439780434431    8.06165800940717
C         6.63782481145723    8.84842000918621    9.00873812091199
C         7.23872725489765    8.38446252811011   10.16631055526037
C         7.39154738051046    7.01866704634469   10.38962063581911
C         6.92883008648265    6.12521953076071    9.42992729015301
C         6.33406407210317    6.58400605472697    8.26614864378729
C         8.03110430366196    6.52766705797313   11.65312691008497
C         1.47402049355619    7.64935282724232   -2.58209140967343
S         7.25058385145718    5.18714923708575    4.17417935476429
S         5.58051404770594    9.90455575046912    3.41262682511713
O         7.64035951954638    4.41072775667540    3.03060413968482
O         5.84225871591790    5.15921326574460    4.60240245202514
O         4.47769084034394    9.18782780432935    4.08178382850372
O         6.20902541584777   10.99991794029303    4.09567968314772
N         7.56047555559092    6.73455735320725    4.17496554878509
N         6.47369572950925    8.70972834929160    2.90421308793885
C         8.37424997408250    7.31105887792020    3.13234419489249
C         9.87916264673031    7.26557637423841    3.39777645729433
C        10.60393058576694    7.93916203771749    2.23194886164356
C        10.11553250652442    9.37298853912395    2.02124148204629
C         8.60306404343852    9.42431911142756    1.80239113182655
C         7.91152150664745    8.76768606715009    2.99747874895583
C         8.14908623201397    4.53066233539114    5.58735665592813
C         8.32447217955563    3.16920484304360    5.76178317310976
C         8.99895624380895    2.70456177206016    6.87749665056683
C         9.50771823005968    3.59269444872977    7.82182368720121
C         9.32825212127204    4.95721385736790    7.62566052461351
C         8.64719873585605    5.42754629251870    6.51471580432600
C         4.81443537526733   10.57569958233658    1.93055059015837
C         4.86125700974811    9.81748797895900    0.77488582240913
C         4.26314225812493   10.29292266549107   -0.38079792095607
C         3.60764100159872   11.51880233056570   -0.38710633722941
C         3.57099972055645   12.26839386026528    0.78603319283721
C         4.17432876221374   11.80250424759022    1.94120681078767
C         2.94838436224132   12.03611453273565   -1.62989522288749
C        10.24250975147612    3.07523568692330    9.02143080809758
H         3.44604035604850    5.14198673947298    4.86668406899207
H         1.37376457840283    5.43549718056385    3.51362432516171
H         1.19910520226400    7.08627754346550    4.13681193300707
H        -0.20959485324405    5.51455261329934    5.46383204971590
H         1.21122041826417    4.51936098802712    5.79651638714063
H         0.70219538743668    5.95977272756994    7.72993626088973
H         0.78021786901235    7.39777107768630    6.70735794978205
H         2.90243981452150    7.15735298581068    7.93780400462320
H         3.11721389488929    5.51775411396142    7.29730700579950
H         2.92697220266645    8.06836987862002    5.61806734688771
H         4.08501985016024    4.58385593865476   -0.23539200286290
H         2.91386531845438    5.38775356479323   -2.28158359248436
H         1.61095841480067    8.84598120663669   -0.14494073850306
H         2.81967756918720    8.02982039761893    1.88107512580963
H         6.50196176001804    9.90185805171538    8.82326446033608
H         7.59282689015100    9.08566056369462   10.90812997258705
H         7.03937684433288    5.06277561066619    9.59133926160490
H         5.97374379147083    5.91131429160116    7.49964205801841
H         8.28347475683501    5.47348702949886   11.57688446010291
H         7.34715565178208    6.65598897903447   12.49158582531622
H         8.93351660711879    7.09415760789737   11.87328003470116
H         1.08783480030742    8.65536331774556   -2.44297511456546
H         0.63996505370795    6.98816494467595   -2.81363169307968
H         2.14605050977476    7.64411192193242   -3.43827575447937
H         8.15273543052838    6.78051661952999    2.19046506496738
H        10.19947176590582    6.22629090451451    3.50119296882327
H        10.09075380363923    7.78884487830938    4.33258442091877
H        10.42289281901617    7.36035269620108    1.32428755144561
H        11.68045896965551    7.94444509545911    2.41840946690219
H        10.36372339607165    9.97040345242582    2.90052501154524
H        10.62910806950254    9.81012807720409    1.16168942382517
H         8.26254516787680   10.45793402423729    1.70756225236420
H         8.32995132162642    8.88430570813301    0.89341468859944
H         8.17779034188129    9.31200851626819    3.91921108148431
H         7.93291593446112    2.49735297173142    5.01487666175167
H         9.13695014843843    1.64261206987542    7.02097324744809
H         9.71966747299809    5.65768868726698    8.34900060647743
H         8.48658288119500    6.48306698522497    6.34210263089441
H         5.36997903573121    8.86351917397035    0.80978563881715
H         4.30193492051599    9.70278485111694   -1.28478049538993
H         3.06690276207558   13.22404363214596    0.78840446814758
H         4.16608743521209   12.37357068582593    2.85577392243666
H         3.40593549743169   12.97498955942177   -1.93773520230447
H         1.89233209353065   12.22883824842144   -1.44759870800855
H         3.03897438667680   11.32248155507455   -2.44413785560597
H        11.17930891875162    2.61074373118853    8.71633623508005
H         9.65165033421160    2.31900243389848    9.53499125367031
H        10.46757004584256    3.87941013367546    9.71663036612103

