70
CSD_code = VIQQUH | q = 1 | S = 0 | Stoichiometry = C29H37ClOPRu(1+) | MND = 9
Ru      -12.48655705528630  -12.17267979630061   -2.92974112829388
Cl      -10.20926847759050  -11.90346340214310   -2.40947249095886
P       -11.82177939580755  -14.29351651833866   -3.54444225814583
O       -12.48556984966506  -12.23447282511887   -5.74099962823231
C       -13.99120518448204  -10.30706202411881   -2.61283185020304
C       -13.08918073705939  -10.38545362049421   -1.53747094590257
C       -13.04255121129881  -11.56709024370600   -0.71390372868547
C       -13.87970379256563  -12.65802364724205   -1.01013912233942
C       -14.61988625000241  -12.66329910102612   -2.24069113415564
C       -14.65107705526988  -11.50036976578419   -3.05618844858752
C       -14.33233311433428   -8.98391486774988   -3.24555822034916
C       -12.25577084312215   -9.20148151235100   -1.13623626721766
C       -12.17152869707313  -11.50938333084179    0.50949877978973
C       -14.11569402684676  -13.79508756199230   -0.05097064665027
C       -15.56460638950064  -13.80032924185294   -2.50999222208856
C       -15.53696820230847  -11.45440517291516   -4.27379419936711
C       -12.19975571396073  -11.84885864276042   -7.09142550180861
C       -12.06236683006346  -11.56405036990002   -4.71246654723896
C       -11.28576722163393  -10.31423169855742   -4.93189135331061
C       -10.61925245974989  -14.31820841844470   -4.89848423798714
C       -10.69095754000560  -15.04944871333346   -5.99935394924327
C       -13.12795244117814  -15.45616640936673   -4.03735399518483
C       -13.88334931705865  -15.16365445160743   -5.17147994645921
C       -14.89749715992305  -16.01381006105906   -5.57175730346773
C       -15.17917896464859  -17.15366828446147   -4.83412693034205
C       -14.44663318446373  -17.43692185960531   -3.69347283955768
C       -13.42595188091191  -16.59217910692916   -3.29133871500449
C       -10.88500537727554  -15.20922876895157   -2.28133944440002
C       -10.81844007980100  -14.75520735085019   -0.97099390171956
C       -10.10547311082767  -15.46917286796570   -0.02413538898063
C        -9.45707218271357  -16.63879910460630   -0.38308053683453
C        -9.52126413304839  -17.09583483923412   -1.69085838629327
C       -10.23193612954771  -16.38707207217637   -2.64087437120771
H       -15.37734827264186   -8.97650984964639   -3.54587022215398
H       -13.72291850045357   -8.77201355783902   -4.12353268372920
H       -14.19285308849824   -8.17503212949457   -2.53355618409120
H       -12.64948890222231   -8.74588793139183   -0.22692907254228
H       -12.22182080809607   -8.44600358033414   -1.91498377362023
H       -11.23175165907029   -9.51540069440805   -0.93833537282685
H       -12.47455786844017  -10.67807694842778    1.14564173115621
H       -11.13218396318605  -11.34649586910818    0.21888521062620
H       -12.20660360692571  -12.41934862784748    1.09892982113714
H       -15.18760975041501  -13.91596124190665    0.10124433529992
H       -13.66582837507851  -13.61705594648697    0.91959571094674
H       -13.72200321739898  -14.73544306567246   -0.43783159141094
H       -16.49910544916260  -13.61486888696260   -1.97683690059373
H       -15.16192764839792  -14.75030053214642   -2.17044652105782
H       -15.79713416350942  -13.90036609457928   -3.56478443610078
H       -16.57793514514968  -11.31679068563106   -3.97809602233647
H       -15.46534006668515  -12.38051218408243   -4.83946238665339
H       -15.25569673560395  -10.64264197004392   -4.93814288626177
H       -12.57223881352191  -12.65523618164939   -7.71964836352911
H       -11.12573130710867  -11.73246049452259   -7.24051117795101
H       -12.71229121424656  -10.92009302031467   -7.34906511651588
H       -11.72187287398187   -9.68254072262076   -5.70748684009550
H       -10.27840721821092  -10.59457459437796   -5.25515368799356
H       -11.17660003019263   -9.75341893902998   -4.00526163240943
H        -9.76974332831871  -13.67065376449218   -4.69433286263816
H       -11.52598360862920  -15.70120275154413   -6.20194210666930
H        -9.90972385496999  -15.02773507578650   -6.74241198242371
H       -13.66316533872349  -14.26506047697813   -5.72861730070699
H       -15.47161024779632  -15.79026771879217   -6.45880768517424
H       -15.97006359703522  -17.81762085746803   -5.14679246710451
H       -14.66868440335991  -18.32012574945563   -3.11398866967428
H       -12.85590173217057  -16.82240340398113   -2.40236263049633
H       -11.30465719783041  -13.82788348944565   -0.70451540257112
H       -10.04905749432349  -15.10958348122068    0.99229650378001
H        -8.89589542122021  -17.19261177258944    0.35368577708281
H        -9.01137069556531  -18.00482752948412   -1.97148849028464
H       -10.28336039283547  -16.73934452844737   -3.66181775999024

