109
CSD_code = VIQQER | q = 0 | S = 0 | Stoichiometry = C40H44Cl4N4O12S4Ti | MND = 8
Ti        3.90624311442233   17.28607557851811   10.71063087581707
S         4.28709491609936   16.08601419753658    8.36169763134258
S         2.13308396091007   18.57919088608575   12.23041405425857
O         5.27055266946561   16.03539282597606    9.45040358281099
O         3.71808578421352   14.87067451578398    7.86133932030426
O         3.55265455189870   18.48135754632656   12.58706937833541
O         1.54032008004528   19.86668044858650   12.02384817726063
O         6.48555610494027   14.96863928192783    6.84359625092337
O         1.92435884695604   19.58346911863169   14.93927542507985
N         3.29084372001736   17.21667691767431    8.83625154804290
N         1.98209935676611   17.51589375712163   11.07050541809597
C         1.86184865632434   17.02019472747574    8.74023477872892
H         1.65107784566908   15.95291912075981    8.91957428123395
C         1.24836614648902   17.43689885139633    7.40257251275347
H         1.70377288786893   16.85559253593023    6.59785167529803
H         1.45333618920657   18.49555044445711    7.22922527875542
C        -0.26023370186427   17.19342843192283    7.45572470625705
H        -0.71985902104373   17.51262242509961    6.51750627704690
H        -0.43997484078616   16.12297944560328    7.57094876157353
C        -0.90605694137830   17.94271662879276    8.62175991765432
H        -0.79051465983245   19.01722514067058    8.46839319851263
H        -1.97515844195103   17.72016058007882    8.65117253781859
C        -0.26119842667720   17.56315163821043    9.95525031646563
H        -0.41440355406745   16.50115637454159   10.15898480955378
H        -0.69667074954130   18.14308392393599   10.77191648678221
C         1.23960864412276   17.84649877511390    9.87458139900527
H         1.39592315845801   18.91718769194645    9.66215425075731
C         5.17421743143424   16.87308168633691    6.99729666057024
C         6.20283384743586   16.18314927523155    6.34929038870686
C         6.84451565491566   16.79657607459862    5.27081806410234
H         7.63856287303698   16.29698340583109    4.73984137437439
C         6.47393389371408   18.06888133712754    4.86991138139564
H         6.97310113444857   18.53859085935142    4.03684193222807
C         5.47218345039079   18.74351711039360    5.54777512079754
C         4.81946536711167   18.14873868224837    6.61793757206977
H         4.04262947160982   18.65042505891011    7.17647560521160
C         1.26810066379143   17.79967679090076   13.61327647295681
C         1.23989315231619   18.43256407140424   14.85927870517706
C         0.52660153567810   17.83170635009354   15.89920236320272
H         0.47372266122030   18.28985245385040   16.87354121204381
C        -0.12141961639082   16.62533782110360   15.69545390083155
H        -0.67059324449424   16.16517340770086   16.50194591256125
C        -0.05208212546827   16.00277021714066   14.46021748235852
C         0.64663578105711   16.58686559731814   13.41347385196116
H         0.73137421469245   16.12349802035744   12.44127562811073
C         7.50307493314165   14.19987416862523    6.23650170869260
H         7.26416296696142   13.97444544000067    5.19263456382689
H         7.54209099146572   13.27463603018669    6.80745786353260
H         8.47266051884095   14.70462477363718    6.29121262406039
C         1.93999985853856   20.28942923213640   16.16246148771297
H         2.55401645155560   21.16837038643484   15.97797782006036
H         2.38721018628142   19.69242644517156   16.96338516047148
H         0.93334917685851   20.60283026197008   16.45568621725308
Cl        5.02362635456023   20.33087044371548    5.06333697396148
Cl       -0.83833004812154   14.49417691869866   14.21126775018141
S         4.15559993229031   14.77883468492675   11.59487505593930
S         5.04551624358443   19.69660598187209   10.66085589955735
O         5.11781495370860   13.78734579780230   11.21700624037181
O         3.10980205329226   15.17601728176604   10.64612500517090
O         3.68762423963487   19.45069831967734   10.16114499769137
O         5.25043689777883   20.62240965603408   11.73435640763659
O         2.59704049258716   12.33801263057968   11.71223112253992
O         4.65580987907070   22.24806570545381    9.34266759972377
N         4.70805767178582   16.16447562024158   12.11880135686478
N         5.62996800053443   18.23862975003550   10.83391720899365
C         6.13323246433539   16.37849693967077   12.23787974812609
H         6.62939468050846   15.82618979250543   11.42257016801866
C         6.73393719853191   15.94713398821196   13.57669492491763
H         6.55801881033713   14.87958992452401   13.72610785707729
H         6.24509714042301   16.49897293436824   14.38249698138158
C         8.23282167770899   16.24920997949596   13.56458274084262
H         8.70757751903299   15.64332637989946   12.79067075132580
H         8.67354465574441   15.97339895996205   14.52534850434952
C         8.50207624004196   17.72812329910316   13.28469519925355
H         9.57988134294941   17.90269501797530   13.24967364198479
H         8.09029267015687   18.32987198209986   14.09695477643653
C         7.86225350063720   18.17243617320895   11.96899669154004
H         8.01868237300793   19.24109779718011   11.80658543004714
H         8.30027867111299   17.62318938071029   11.13277812065371
C         6.36176293643883   17.88210078414181   12.02864675414342
H         5.91953923131552   18.43115902117691   12.87636617896856
C         3.25048462793269   14.13530160484043   13.02161609992275
C         2.56732445430268   12.91997656048399   12.92047604122862
C         1.91813121643765   12.42087437408886   14.05221503496097
H         1.38521039262984   11.48444304590759   14.01884580031348
C         1.94275769133108   13.13005192332609   15.24099183595447
H         1.43992190921782   12.74022279312844   16.11218064517989
C         2.60168617212333   14.34645004953553   15.30724972719865
C         3.25604656178202   14.85635073356870   14.19515762090072
H         3.76941283772355   15.80679334364471   14.20800712558637
C         5.94707165251274   20.32701545205443    9.22594560343946
C         5.65606699702188   21.60000762889640    8.72715413617539
C         6.40372995095448   22.08442982008468    7.65122761384724
H         6.21658143780152   23.06359609422457    7.24111412831562
C         7.39853998149592   21.30546941964223    7.08532766968087
H         7.97292661647987   21.68415955067718    6.25438975350890
C         7.64610218729334   20.03479621622186    7.57748689153841
C         6.91862110808509   19.53883958355389    8.64973851923365
H         7.07797719596836   18.54890532391857    9.05183506572476
C         1.94640051193048   11.09750651098196   11.53138887723479
H         2.11209901884134   10.83659454311795   10.48828954438928
H         0.87162316240710   11.17765185993448   11.72200775239474
H         2.37710802430478   10.32331412053305   12.17377910866755
C         4.30618933961019   23.54473644936142    8.90519474260144
H         3.48149206481416   23.85039203194993    9.54551479001735
H         3.97654724311676   23.53956064243217    7.86156640359645
H         5.13904156222281   24.24450019263035    9.02434936353053
Cl        2.61860518278394   15.23734905976333   16.77767326870571
Cl        8.86734558902709   19.05811915827895    6.86318882378525

