46
CSD_code = VIQQIV | q = 0 | S = 0 | Stoichiometry = C15H27Cl2PRu | MND = 9
Ru       11.99767724538470    3.80778982587958   13.24377288417408
P        12.89137774904665    5.22719780964476   11.69517415443005
Cl       10.48769160255176    5.61691019048100   13.45356841567870
Cl       10.82461455027389    2.95683678218590   11.37254218225019
C        12.73375843106442    4.02062437847072   15.34651737647119
C        13.80977024644347    3.48726145490501   14.59009284649338
C        13.61084054584162    2.30169392748663   13.80928205173175
C        12.35889804868378    1.64308869023300   13.83334506665824
C        11.28451567771825    2.16615633706219   14.62515052423501
C        11.49390307490125    3.30572726498773   15.42717554047099
C        12.87586174853913    5.30204108577569   16.12576494391930
C        10.43328285544704    3.78635265294175   16.37757964801860
C         9.94935641614348    1.46927519357501   14.60001165829611
C        12.15486846162119    0.35406617920698   13.08839967011541
C        14.75223703842574    1.69852140806722   13.02987024609375
C        15.20849673064249    4.03659742577074   14.72492511125637
C        13.62706431397047    6.75160106739683   12.39131377521374
C        14.23359335143438    4.53976180157293   10.65524467411310
C        11.78850688130426    5.92047948586563   10.41872986985481
H        13.10512085535160    5.10116451351091   17.17423395396549
H        11.94680842714220    5.86588573137229   16.06951985270427
H        13.65600837271053    5.93455855107100   15.71174789361866
H        10.88507693456788    4.21971063057829   17.26660752153252
H         9.78864332095460    2.96937356036042   16.69021903858462
H         9.81950664945935    4.55268729887269   15.89799105832526
H         9.93528314035644    0.62668943774549   15.29519042232484
H         9.74103927347786    1.10152208188503   13.59714498880256
H         9.14768899264598    2.15462063935808   14.86104241961698
H        11.51361573708886   -0.31700449152397   13.65479480420842
H        13.09573720062421   -0.15410874461494   12.90111343817673
H        11.67355093871975    0.56016612734965   12.12873900195284
H        15.15409440028762    0.83276818234092   13.56089968865872
H        15.55936561489601    2.40837709259816   12.88265649855326
H        14.41140713741847    1.37560387768721   12.04858579748329
H        15.88996646420353    3.22162154153876   14.96897332305188
H        15.27499426082148    4.76939059317216   15.52239897633528
H        15.55435548506564    4.50366436549378   13.80277371006521
H        14.01453003700978    7.38117977753455   11.59185564909930
H        14.42901290368448    6.50476416733377   13.08312566035851
H        12.83836924803574    7.27576443811147   12.92992315098973
H        14.56411715653496    5.28117081492884    9.92959109043990
H        13.83526070374513    3.66900436024154   10.13609704309936
H        15.07455292272055    4.23354770168992   11.27244811740656
H        12.35141700135776    6.61025880574702    9.78908244901194
H        10.96634912795220    6.44005859464854   10.90999474711481
H        11.38391272370557    5.10377738945597    9.82198906505004

