55
CSD_code = VIQQAP | q = 1 | S = 0 | Stoichiometry = C17H30N5NiO2(1+) | MND = 6
Ni        5.03730142378175    3.75502439546895    8.40027100091343
O         5.89540364861337    2.66163740046119    7.26922079417415
O         6.10434933227205    0.60967824786839    6.47521759352203
N         3.76513752546444    4.48733660743797    6.47741667274842
N         6.32027360204290    5.41068633775756    7.65114664014501
N         6.96804060664487    3.52725237929780    9.83971394428490
N         3.99412426322228    2.03934776065709    8.90614949072903
N         4.20146120760589    4.79391204409283    9.49303915531901
C         4.55718816002913    5.58480053184211    5.89860817106774
H         4.19492814950211    6.53163151450390    6.30297030522230
H         4.43026311376074    5.62320517519007    4.80941319445506
C         6.05107921517775    5.42862338975390    6.20452336758969
H         6.39742521718401    4.48455629868852    5.78323460946034
H         6.59909828800644    6.25082900200666    5.72517820264514
C         7.68727646603220    4.93745546135860    7.92116478254258
H         8.41941847118978    5.70432009143872    7.63480015104837
H         7.86212702065327    4.04473493196538    7.32018564296539
C         7.89326070840523    4.58365275697185    9.39839954320638
H         8.93560405496162    4.26962324772215    9.53565285948326
H         7.73563561554490    5.46995569219562   10.01553913537509
C         2.41561330742235    4.95220973663276    6.80434721245371
H         1.88559818277902    5.29915759874102    5.90821750925102
H         2.45829864714046    5.77065417680225    7.52152188859219
H         1.84683334754573    4.13368895512112    7.24363817900923
C         3.64037752346098    3.40323412480679    5.49788639180476
H         3.10485555405406    2.56396636053260    5.93993398469120
H         4.62173004191492    3.05735100832788    5.18497077578939
H         3.08767205072771    3.73982497324655    4.61185703594807
C         6.16225715975770    6.76393990523358    8.18891193011843
H         6.86920127560002    7.45145571445134    7.70911670944309
H         6.34243369532907    6.77658987795297    9.26022714860342
H         5.15421238664051    7.13166799437486    8.01862612733172
C         6.66497438416240    3.67969751546340   11.26422362955278
H         5.97007506804230    2.89954758977254   11.57230341900306
H         6.20635362321534    4.64892625550583   11.45463530035635
H         7.57215347606248    3.59526566007443   11.87593454827724
C         7.59679797403768    2.21564757006175    9.65345101247928
H         8.48977852230364    2.11810489799595   10.28345761396860
H         7.88634960968563    2.07573473856907    8.61557294371150
H         6.89606403217710    1.42686643311969    9.92429001962094
C         3.01569446947436    1.77986571000083    9.76879572485944
H         2.64831817542070    2.60953418349822   10.35882034666763
C         2.47378151626758    0.51445216536046    9.92389297778661
H         1.68140264546249    0.35492157518304   10.63766618788455
C         2.96252965755429   -0.53181363242789    9.15365745810442
H         2.55718300516286   -1.52661197664190    9.25530756449902
C         3.98079359418541   -0.26604628668167    8.25452413620402
H         4.41542368928401   -1.02260914356176    7.61983022913292
C         4.46668507511975    1.02893963108132    8.16270180523236
C         5.58191916071587    1.42064214532606    7.20947824055411
C         3.59750988965602    5.41646641715348   10.24850512972281
C         2.85319824620018    6.19642531044157   11.18074790558223
H         2.80894398463825    5.68428562238539   12.14241384478174
H         1.83819580518061    6.34796747286822   10.81211947243294
H         3.32909513352108    7.16768645254717   11.31847033965214

