86
CSD_code = VIQRUI | q = 1 | S = 0 | Stoichiometry = C39H43ClOPRu(1+) | MND = 9
Ru        7.09457733405044   11.07887230511633   14.48980146229700
Cl        5.15093016420176   12.27552799496723   15.03333653475843
P         6.90424731340921   10.22328072139222   16.62261490678283
O         6.74358616376209    8.82673773230267   13.01765911321630
C         9.47528946636243   11.24315703269273   14.48112742606927
C         9.11455237254913   12.57158032806797   14.88268074661032
C         8.12792838380509   13.26118304527899   14.16698879087231
C         7.60058789898194   12.70307231560379   12.95290492489600
C         8.12645005631577   11.48666104443892   12.44619323595102
C         9.08275914644372   10.75335028666678   13.20940450512451
C        10.50666189168559   10.52190449820761   15.30799995380600
C         9.94032676266530   13.23910207242612   15.94738103757475
C         7.66062060754216   14.62542993583666   14.58541216622746
C         6.69033903073853   13.57262406342722   12.12855113636646
C         7.76475650689522   11.02807223211093   11.05680585153282
C         9.80353813778996    9.59047678548276   12.57798477595812
C         6.20306624043094    7.69436594003313   12.32840856836918
C         6.03527171482716    9.61218580572743   13.78753574801664
C         4.56843844527515    9.34083218470111   13.91756370543549
C         3.86818144625605    9.65435302349322   12.60890340426205
C         2.98512745378931    8.75188638120216   12.02964763338765
C         2.34909090488066    9.06531164642411   10.84030049837222
C         2.59666486765961   10.27550135479683   10.21499409815984
C         3.47165177872606   11.18103922971570   10.79174646192923
C         4.10192994200694   10.87240997440309   11.98391318881983
C         5.25450880485000    9.87533008733456   17.31780623752035
C         4.70057570888176    8.62103905766677   17.06006398289594
C         3.44183236850652    8.30370201226789   17.53225342337919
C         2.72057626360457    9.23485598610518   18.26301355354973
C         3.26771358527081   10.47914087531234   18.52488487531734
C         4.52929175757175   10.80326010428471   18.05629283396203
C         7.71839881835748    8.62565294610586   16.92176066330481
C         7.67122646599540    8.03497632257939   18.18358171860447
C         8.27568464204725    6.80968139487928   18.39311248854623
C         8.91717249352967    6.16027916026459   17.34870596079841
C         8.94385334698574    6.73192886341453   16.08751447765174
C         8.34426639594492    7.96151378641474   15.87422039010489
C         7.64401240140231   11.38590692003433   17.81075865940766
C         7.16831562463485   12.69873723871155   17.80134634245204
C         7.66416908349285   13.62440861605690   18.70160322812947
C         8.65358115480198   13.25845783744598   19.60120453183050
C         9.15897246090630   11.96850668096432   19.58421566613982
C         8.66135812951588   11.03214345456369   18.69290307603789
H        11.50911899845054   10.83259522419259   15.00760512440032
H        10.43579951591217    9.44338639674429   15.20248186550466
H        10.38303776725356   10.75543675980823   16.36311286521127
H        10.99432818213444   13.05947737578330   15.73833924143482
H         9.73000414289948   12.85821124476392   16.94438259978024
H         9.78551726099162   14.31254389985725   15.95589473961890
H         8.12474615200840   15.39194130564772   13.96336766065420
H         7.89239753313000   14.82983152173080   15.62597863121799
H         6.58113370573862   14.70426709798530   14.47124029468329
H         7.19008752598728   14.51696585839420   11.91178844275074
H         5.77493437599960   13.80135400934183   12.67564318293326
H         6.41748617749195   13.11241989069421   11.18571579197440
H         8.26817674409763   11.65906572625905   10.32292280865143
H         6.69180423933148   11.09065825693611   10.88340810398460
H         8.06149946683252    9.99959516512019   10.88384444205193
H        10.18133987365767    9.89434345782041   11.60234241280020
H         9.14835928758132    8.73287141601339   12.43708799792868
H        10.65304590596582    9.27466617609905   13.17346449492183
H         7.03389116699452    7.24603205294487   11.78645764825817
H         5.42265384276366    7.99839238577826   11.62984926581327
H         5.80036161938030    6.96988247488264   13.03858036570041
H         4.14099890438166    9.96579527313553   14.70581061735300
H         4.39483308764353    8.29204882406154   14.17663256007453
H         2.78375884225231    7.80590194038761   12.51237344251336
H         1.65848469920211    8.36101322486272   10.40245542085632
H         2.10253929860062   10.51551241393146    9.28644413435567
H         3.65497812226088   12.13288521278120   10.31558190856677
H         4.76019832236148   11.58418746267293   12.46067916000331
H         5.27079190940612    7.89300666789607   16.49780874569676
H         3.02203379727188    7.32919772697668   17.33264526418177
H         1.73629286508791    8.98821534815726   18.62981400557359
H         2.71090677091176   11.20469337074610   19.09774876724248
H         4.94393101610983   11.77512150282661   18.27273171276159
H         7.14951657914641    8.53331878998341   18.98918258166539
H         8.24237787363957    6.35563528001832   19.37165979441543
H         9.38656867304938    5.20341496290862   17.51719111470218
H         9.42870350797635    6.21700407927624   15.27120930414029
H         8.33995115942648    8.41399118913423   14.89011778713652
H         6.41744903822428   12.99004209557725   17.07784010000491
H         7.28003822484218   14.63351264216864   18.70063939348330
H         9.03855717267590   13.97939472104208   20.30563998278928
H         9.94437710243341   11.68638465503294   20.26900274632650
H         9.06660601123552   10.03054564052562   18.68718149140763

