55
CSD_code = VIQRAO | q = 1 | S = 0 | Stoichiometry = C18H33ClOPRu(1+) | MND = 9
Ru        9.25098348812107    7.76500339614800   14.09173784105265
Cl        9.46861891416757    5.79115965210176   15.34007372366200
P         7.03005556179810    7.58176728198086   14.67705708083557
O         7.79466926435927    7.06285123710873   11.81640414945102
C         9.78076070476387    9.73132644111307   13.07210387383504
C         9.42220827111108   10.03594498365840   14.42108628234764
C        10.14398563236820    9.44589597920192   15.50037016817898
C        11.15208427448518    8.49450590898690   15.22684265000510
C        11.52317337101690    8.20522749666478   13.87239243324174
C        10.92728765720427    8.92045281950943   12.81163838107863
C         9.08435181008547   10.41298523302469   11.92202565857512
C         8.45482262660554   11.15273085102213   14.71179632958879
C         9.90930315119333    9.88428551956633   16.92410552519493
C        11.94686717472742    7.86215484207304   16.33077561780148
C        12.65743817067573    7.24786343293766   13.62369878301012
C        11.52399940756017    8.89721611561339   11.42990776418550
C         7.43294720982458    6.38584301258680   10.60627968115647
C         8.82523274281885    6.71432775719513   12.53310509313842
C         9.65855585581446    5.56453093590096   12.09296014862978
C         6.79601351601592    7.83600289640342   16.46768430306844
C         6.23735008884835    5.95556459762540   14.43471771490741
C         5.80511124322130    8.70731021699754   13.91986294245082
H         9.45584842961175   11.43140130286957   11.79869683282571
H         8.01014275404464   10.45320155318890   12.08573515263178
H         9.24615129950102    9.87413276913886   10.99346815163819
H         9.01172171591437   11.99635482684246   15.12270947840059
H         7.70054592297718   10.86206511982227   15.44085781863914
H         7.94598556247414   11.49877216713368   13.81961133797533
H        10.78593246201445   10.42346487290942   17.28657338689593
H         9.74388018749911    9.02658468803288   17.57442156689802
H         9.05632529688392   10.54678409745959   17.01805999229535
H        13.00955165407901    7.89603791125903   16.10000376720769
H        11.65809408553335    6.81465987095755   16.44507127310333
H        11.79057396369490    8.35534490828269   17.28309815379191
H        13.61643892332303    7.74271480592337   13.78606567712663
H        12.64031189590505    6.85881465175385   12.60986137055234
H        12.59441988922482    6.40278813946742   14.30592568063047
H        11.47384465329719    9.89256016671874   10.99345310880962
H        11.00210562049037    8.20934521576112   10.76521843680361
H        12.56954867384643    8.60681863769965   11.46582198920143
H         6.51488141813241    6.85529348241069   10.25955412751059
H         7.25950094062311    5.32432599803584   10.79093724816900
H         8.20789602679699    6.49983091954889    9.84641622044448
H         9.06250810189165    4.65053374529424   12.17450428926919
H        10.52780327775565    5.44617181006494   12.73628963908032
H         9.97480040314465    5.66061880726966   11.05234045251252
H         5.74402711281399    7.71346795599315   16.72342409129355
H         7.12505356545723    8.83047332562612   16.76174842337883
H         7.39071685389044    7.08996368810200   16.99553692517683
H         5.27553369305031    5.95236044540345   14.94748076481584
H         6.87861704824494    5.18038506308710   14.85307792831968
H         6.07935201100337    5.76749265860279   13.37482563545525
H         4.81192120567664    8.44718653749101   14.28300486352549
H         5.83769173734170    8.59626172835551   12.83879953549613
H         6.02155347708613    9.73933752207841   14.18028053473604

