62
CSD_code = VIQSOD | q = 1 | S = 0 | Stoichiometry = C27H31ClOPRu(1+) | MND = 9
Ru        3.37491847136709   -7.82011318859720   -5.08508014099326
P         5.57898495866294   -7.45026410152674   -5.69915319668594
Cl        4.11926814222249  -10.03384696467466   -4.88261686490524
C         3.37883917490469   -7.12805362965017   -2.84193532183299
C         2.48611183736021   -8.22343380300947   -2.90355168128404
C         1.46695511540517   -8.26490499264233   -3.90289125641253
C         1.18397060927427   -7.09954222803834   -4.66247136566999
C         2.05393602740851   -5.97086336561472   -4.57440775998111
C         3.17236227289894   -5.99178822640544   -3.69190063620711
C         4.42730698029350   -7.12141186867278   -1.75938693385560
C         2.57609940325333   -9.33787901433282   -1.90583012484485
C         0.62575716934890   -9.50313445050307   -4.04777056774727
C        -0.08064469637969   -6.98281312862177   -5.46754575995432
C         1.67883642205686   -4.70985179498591   -5.30401978033854
C         3.97104503848933   -4.72617483234720   -3.53058518909623
C         6.25641308506190   -8.76030340747972   -6.74556827320883
C         7.46276301666238   -9.29269877287931   -6.62512567107403
C         6.70923209272173   -7.28711562190894   -4.29650473929607
C         6.96778480121398   -8.42884900758520   -3.53680972271642
C         7.81094814936716   -8.35091788854608   -2.44345425213333
C         8.38615619858814   -7.13820714275381   -2.09407381591655
C         8.11363260665545   -5.99929575551501   -2.83592097699807
C         7.27385518295324   -6.06656661474680   -3.93435113030890
C         5.84651575290056   -6.00140781016265   -6.75953428320490
C         4.76289912718388   -5.28222204241488   -7.24895701049046
C         4.97058021365113   -4.20526734366696   -8.09307185075634
C         6.26010534741953   -3.84937864019741   -8.45371853082508
C         7.34268918499263   -4.57549945604530   -7.97959071143263
C         7.14133974990082   -5.65299359559524   -7.13741939663803
C         2.99346343363585   -8.11114476292833   -6.86201489349405
O         2.66977752486257   -8.27830126283748   -7.94452874079616
H         5.26375996295880   -6.47024730067143   -1.99181515462071
H         4.83389367539710   -8.11875132743079   -1.61137680652864
H         3.98286773558776   -6.78274351628648   -0.82173958250342
H         1.60109199491433   -9.78949859670234   -1.74581700515315
H         2.94287360948905   -8.97856859101600   -0.94866636089333
H         3.25335165194853  -10.11600469708752   -2.26563123140700
H         1.22828106650455  -10.39052949810095   -3.86538891673456
H         0.22464177403297   -9.58859820230461   -5.05474154456751
H        -0.20529365007956   -9.49519177281856   -3.34067346491289
H         0.11803235136543   -6.99941387510980   -6.53935290702993
H        -0.57301029358120   -6.04030488801982   -5.23260649160134
H        -0.77475847847324   -7.78474329197283   -5.24012692033859
H         1.24205671669763   -4.92852195614821   -6.27541210232462
H         2.52856725536208   -4.05259833823042   -5.45569026359128
H         0.93638373124669   -4.16601925646804   -4.71642804519562
H         4.77522292980950   -4.82974831135049   -2.81167161588985
H         3.31257043247525   -3.93018671894699   -3.18169123726511
H         4.40959860875508   -4.41407189734536   -4.47861724995852
H         5.57631784507599   -9.06199197826535   -7.53798396465087
H         8.14307452622329   -9.01227224169129   -5.83682906715938
H         7.80879052637873  -10.05024736511687   -7.30891742874929
H         6.50307576865304   -9.36592461366150   -3.81317622754978
H         8.02176122350283   -9.23615927597534   -1.86306832920028
H         9.04606798154692   -7.07967884607205   -1.24244999693129
H         8.55847350115245   -5.05511225012428   -2.56025152254483
H         7.06719842403102   -5.17854842228897   -4.51479567409177
H         3.75914705832587   -5.58755145990472   -6.97234759999172
H         4.12869801680274   -3.64796758108338   -8.47493050695757
H         6.42224669589969   -3.01079968148421   -9.11280017394291
H         8.34500265739043   -4.30415325962217   -8.27305343614181
H         7.97931230642410   -6.23160627377076   -6.77435859260238

