125
CSD_code = VIQWEY | q = 0 | S = 0 | Stoichiometry = C44H70N6O4Ti | MND = 6
Ti        7.34526604426420    3.24092585000151    3.54754480979969
O         7.67805571836450    4.35780702982857    4.88200357607577
O         6.32047783928121    2.30519006861670    2.44462786438497
O         8.29203215458656    3.98903320637996    2.23679624592248
O         8.41151666230827    1.96290351909973    4.18359629698225
N         5.70903393404226    5.02367079704160    3.13128056675950
N         5.45909646897225    5.91309186115606    4.10010659356305
N         7.73382697183990    7.76832908878314    6.31076464732950
N         5.65436862975710    2.33203754389445    5.08193605109905
N         4.53971367121398    1.79643153067858    4.56923374847653
N         4.03328384074589   -0.51905766248805    1.75536158848880
C         5.69430330970203    4.97429667444961    0.66873360753205
H         6.41457395228402    4.16452568881414    0.79737030751858
H         6.04767866387997    5.67696840115293   -0.08342501336555
H         4.74026591727730    4.56202812188452    0.33521073089502
C         5.53057634252239    5.65973402355816    1.97843444035995
C         5.15628607582941    6.99028330840089    2.22196738394643
H         4.93932996851946    7.74759078158694    1.49553644668961
C         5.12747989481502    7.12135757936350    3.59687868999690
C         4.77902796254474    8.28372797898697    4.45517529971572
H         3.83448716543195    8.10883132470215    4.97239154988389
H         4.67378564391747    9.17457882943906    3.84087026522171
H         5.55429377573712    8.44526715431431    5.20275143170935
C         5.68512179813656    5.56472590216823    5.47034462123958
H         5.18302784534709    4.61456575112157    5.68144629009921
H         5.30499733956930    6.35090624118758    6.12062882625426
C         7.20556011778056    5.33662293802617    5.70721383569259
H         7.31488565660771    5.02863177818432    6.76378047747838
C         8.02649427106895    6.62503586225069    5.45402446656314
H         9.08278703639813    6.31440189201480    5.53181817091992
H         7.83452129803300    6.89565220839526    4.41589110396191
C         8.45515218771861    9.00413681792421    5.92640106538216
C         8.42342448425724    9.22412386064287    4.40662071590809
H         9.10732529761363    8.55497651105536    3.89185061933187
H         8.73573377062560   10.24447420116439    4.19422955858649
H         7.42421743922352    9.08640737180168    4.00578396914966
C         9.93410800348480    9.00226070061621    6.35745627018336
H        10.04515586932887    9.05536835609651    7.43741524098978
H        10.44240262067147    9.86065104119499    5.92542012321204
H        10.42851492889082    8.10092705322649    6.00276359536833
C         7.73281274414292   10.20220942170242    6.56387858459691
H         6.72498461638774   10.28576753415749    6.16494222448428
H         8.26991971283427   11.11900181084408    6.33339810958697
H         7.66606626917987   10.11850708969630    7.64487681155147
C         7.90522518118087    7.41681684245882    7.72117425138138
H         8.22083745844750    8.29841275377051    8.28306552756230
H         8.68915586654233    6.65540796676995    7.84555382762918
C         6.62851405079453    6.93269478129383    8.35973117223045
C         5.45763487361128    7.66973894702812    8.22815050029383
H         5.47563518837806    8.58424317746220    7.65554077419297
C         4.28329403687611    7.24331739594940    8.82214380829227
H         3.38033714126540    7.82634397736235    8.70981199889260
C         4.26482415109180    6.07500006013226    9.56506312186391
H         3.34867002791444    5.74000711435266   10.02852115483580
C         5.42994844363197    5.34385035305271    9.71853031837131
H         5.42543078092822    4.43708011591454   10.30585132952210
C         6.60297743666137    5.77211458281127    9.12203039010250
H         7.51057420666545    5.19918376212538    9.25384638265292
C         7.06544047634988    2.01544412560269    7.07580576019137
H         7.85872953946515    2.41361957959974    6.44070538834099
H         7.41387736362238    1.13091106137375    7.60538498311468
H         6.77898429210686    2.76891573923285    7.81173749118302
C         5.90644295689314    1.67409863252699    6.20856890897278
C         4.92437427638655    0.69339323375487    6.41698492436324
H         4.85418699965305    0.00832704449072    7.23799004866702
C         4.06542891173012    0.79425435557800    5.33971647889553
C         2.82612878515428    0.04279550404357    5.01026832663965
H         1.95112006844243    0.68816378111124    5.10051364329888
H         2.70941622092277   -0.79144151643922    5.69761643617772
H         2.87295542608277   -0.32985017743841    3.98796511662112
C         4.07050034863831    2.21084776875846    3.28172843343230
H         4.02559999381685    3.30484495016012    3.25719299200883
H         3.08771696436162    1.78344989796884    3.08965636114100
C         5.08893311673848    1.77484604734868    2.18974121347392
H         4.70075745266077    2.15974051704374    1.22829959460867
C         5.22947377400132    0.23455157397781    2.11406813991767
H         6.05475815028336    0.05539128205839    1.40340840018269
H         5.56707802949128   -0.07796568515930    3.10218461482319
C         4.21093834722334   -1.98853232480894    1.82360460976348
C         4.96295045170595   -2.40513134756985    3.09638676116365
H         6.02451638678580   -2.18576799592129    3.02317570456484
H         4.85514271517498   -3.47943350536871    3.23063076369978
H         4.55917635449050   -1.91275538544531    3.97541895557118
C         2.82041853613656   -2.64018784365316    1.89640137865608
H         2.31475627666760   -2.33943261049743    2.81057372078217
H         2.92300135871784   -3.72258522050008    1.90136968946465
H         2.19105563766159   -2.36964019777145    1.05335373189823
C         4.98882748693272   -2.56160701268184    0.62376235639598
H         4.42273325528582   -2.49111481795943   -0.30146720633982
H         5.21370098004459   -3.61045449763495    0.80033420115107
H         5.92874230812988   -2.02985945259277    0.49553026147478
C         3.49701476483229   -0.06343448772346    0.47195938862818
H         3.00629442772970   -0.89599202464446   -0.03652650530547
H         4.30165861101031    0.29089732042405   -0.18882053789544
C         2.45958512187740    1.01908775651579    0.62693320969394
C         1.40117729916480    0.85113248325248    1.51193918362333
H         1.34076987290725   -0.05799237561432    2.09012865104677
C         0.43511061207845    1.83119963819945    1.65288484194365
H        -0.38119312180064    1.68705398363082    2.34624619461744
C         0.50920954783481    2.99274756219388    0.90280541970840
H        -0.24343475584580    3.75947878795744    1.01237385563887
C         1.54834790747333    3.16127349855721    0.00425596188683
H         1.60636501614075    4.06020159827946   -0.59218793812068
C         2.51414622659655    2.17970139540573   -0.13368481371972
H         3.31787866241284    2.31573100404702   -0.84420885880925
C         9.35460278371265    4.86249644516250    2.32908129430157
H         8.99757426676482    5.83613268929872    2.73671822354974
C         9.93512046025989    5.12505343192162    0.92679493445327
H        10.27482458940641    4.18461706209759    0.49809027425246
H        10.77005137748242    5.82037235235806    0.97843309642879
H         9.16372099881925    5.53922584419308    0.28152784298091
C        10.45192094672942    4.32923835975371    3.26666347711815
H         9.96884193132953    3.97442584407063    4.17993355185790
H        11.17842987964022    5.10769308442964    3.49751933175582
H        10.96546308130318    3.49435976834435    2.79225164620296
C         8.70709471779745    0.73467336364160    3.63164781894393
H         7.79491793877572    0.09490450920534    3.64522871664755
C         9.78642855428248    0.03151424523666    4.47599409410066
H        10.67841714057994    0.65367472320088    4.50686480385707
H        10.03741594116176   -0.93815558014781    4.05181832765749
H         9.42631307908666   -0.10529643877147    5.49311296426647
C         9.17514524731133    0.86315646581540    2.17165341577025
H         8.47766169244911    1.52477959809269    1.65304122371348
H         9.20781046676878   -0.11186219212795    1.68659908048988
H        10.16901871290331    1.30715590707917    2.14336927759510

