71
CSD_code = VIQWAT | q = 0 | S = 0 | Stoichiometry = C33H32IN3OPd | MND = 4
Pd        6.46150848237979   -4.03149815607998   17.58424067847265
I         5.55952411732742   -4.19073378721846   20.09118758242553
O         9.06319231528439   -4.15379643906189   13.46976877214816
H         8.78566325222777   -3.37182220834215   14.01236506758154
N         7.78158150466280   -2.79970550346517   15.29197440189690
N         8.66115460571254   -6.00910297630918   18.45813137806262
N         4.42418268514067   -1.79829053263376   17.15048351965125
C         7.30107899187341   -3.88732242285982   15.74917051778303
C         7.86754325193393   -5.26695741934767   18.03558766659072
C         5.11870273126021   -2.73514736812309   17.15050590141578
C         7.45398549679502   -5.11797009770458   14.97683333854934
C         8.33681715542126   -5.20271467926387   13.88043458515556
C         8.47102335773938   -6.41809389262179   13.20828394860379
H         9.16878794098627   -6.46917187016240   12.38711946367941
C         7.71478179635934   -7.51172376135938   13.57371121585566
H         7.82508379767995   -8.44087839864434   13.03505149683661
C         6.80338761490692   -7.42182718033648   14.61887677677903
H         6.19546887024980   -8.27355377404688   14.88472713364274
C         6.68481638017560   -6.23762048241723   15.31344759961022
H         5.95762708837596   -6.15578036554136   16.13394602607827
C         7.53315148019224   -1.54893950042199   15.85486641119780
C         7.94233654705320   -1.16300952024945   17.13863501521581
C         7.59798606481992    0.10846403789513   17.58822588304018
H         7.92061910447436    0.41637961384197   18.57310950295316
C         6.85202609522908    0.96959236232662   16.80912515887646
H         6.56957389830676    1.93945716647518   17.18978928020823
C         6.47991330170164    0.59075140804793   15.52968215206628
H         5.91234471999028    1.27025342695641   14.91016399505036
C         6.82996624193276   -0.65062519439916   15.03276498304806
C         8.79258872924394   -2.03673641040978   18.02614542969217
H         9.55367461210733   -1.42891733358565   18.51560834341800
H         9.29699491567252   -2.81842550347868   17.45184488336700
H         8.18422451168276   -2.49418547430907   18.82642160601797
C         6.46016671369490   -1.06671175700701   13.63995304220037
H         7.36086500509099   -1.21778079383961   13.04506366248957
H         5.84967777618325   -0.30575920739604   13.15980799025119
H         5.91660640108406   -2.01208716145398   13.64551556329438
C         9.56550960226929   -6.86677707806472   18.99252231516563
C         9.91841090192622   -6.71729746336264   20.34030998537390
C        10.83838504769976   -7.61151035583621   20.86475501592948
H        11.12682951681347   -7.52122050473113   21.90104661804960
C        11.38373769907192   -8.61221409159205   20.07927252240750
H        12.09743017950269   -9.29993355362866   20.50700663412566
C        11.02311482959366   -8.73725897494510   18.74805153498489
H        11.45570693998760   -9.51942556338134   18.14244234938960
C        10.10900868737419   -7.86707686642713   18.17712423762376
C         9.31104718793313   -5.62727883495369   21.16112885290051
H         9.73251695149312   -5.61684221451636   22.16189476620978
H         8.23203625657916   -5.76082480066266   21.24173772860834
H         9.48267739630548   -4.65491626698548   20.69824553319013
C         9.69214088688896   -7.97642631942828   16.74448628382945
H         8.62315477487214   -8.17731972237961   16.67043894499570
H        10.23076607139609   -8.77754144701547   16.24680381354766
H         9.88221086951371   -7.04440411573910   16.21130654935956
C         3.71020620342990   -0.64945267316552   17.24251938049638
C         3.82768009562777    0.11343881214888   18.41252819619811
C         3.12174352467869    1.30473846949758   18.47350697792673
H         3.19644213138476    1.91329696624336   19.36224985767825
C         2.32651316980071    1.71631989700068   17.41848832269958
H         1.78527919448255    2.64800507525437   17.48609402871428
C         2.21665399813679    0.93950187266543   16.27740339709918
H         1.58932226633833    1.26482341177222   15.46083708672930
C         2.90477498906712   -0.25717311656313   16.16758171121886
C         4.67464201151707   -0.36106972075647   19.54578377317807
H         4.18116598023312   -1.18084358541841   20.06958086630013
H         4.85285883454558    0.44013836521625   20.25730402219273
H         5.63319377657653   -0.73547729945398   19.18469294920667
C         2.80044026020575   -1.12508835382092   14.95364477271792
H         2.17228123501624   -0.65904328621008   14.19949061823406
H         2.37157007388098   -2.09343344366354   15.21385967100989
H         3.78712090118294   -1.30452206069197   14.52909070939249

