58
CSD_code = VIQWIB | q = 0 | S = 0 | Stoichiometry = C27H24IN3O2Pd | MND = 4
Pd        0.51304320103121    4.52846903388784   10.09771398446232
I         2.49389855122280    2.96908561205876    9.60555976886885
N        -1.18025805828419    5.96522160938611   10.37245862935242
N         1.01547580291119    6.24826770147952    8.76271183718037
N        -0.05925484010818    2.53397685215153   12.14896695421112
C        -0.36729175114398    3.05903605405034   11.07190371848326
C        -1.07740935139844    7.05046835934835    9.59124741391782
C        -2.06925258951147    5.96608059773526   11.35862798918875
H        -2.13032069161044    5.06955467144204   11.96234317241430
C        -2.90261197431251    7.03923853782443   11.62001623080334
H        -3.61354601504466    6.98750092792693   12.42871503656136
C        -2.79744957987113    8.17186022494023   10.82533575066107
H        -3.42165405051383    9.03400645466206   11.00549170708655
C        -1.87060974035802    8.17839361877392    9.80054473562437
H        -1.74278956077463    9.05198209032379    9.18110647136394
C        -0.06601781077371    7.00675993109211    8.52403881826529
C         1.97802592142008    6.20096861416457    7.84893796629233
H         2.83990654801742    5.59010688929207    8.09080775434962
C         1.91320710629226    6.89233987011666    6.65082391061619
H         2.72526777797395    6.82675714781268    5.94503381046384
C         0.78509203974319    7.65346474321718    6.38198591887189
H         0.68746287253263    8.18893033042194    5.44962691997028
C        -0.21766620024033    7.71399381533416    7.33268674160127
H        -1.11794431085640    8.27888358818456    7.14734356012689
C         1.07539962603656    2.55669894090435   12.93463055437635
C         1.64155691786086    1.30964003197122   13.24196816336637
C         2.73536291846379    1.26507941195253   14.08946351854915
H         3.18197433561119    0.30958393524039   14.32136166098646
C         3.25964126990722    2.42365668751535   14.63423398502930
H         4.10991591511551    2.37465361728052   15.29776733390531
C         2.70169738708658    3.64822092947752   14.31722522054140
H         3.12281467824936    4.55426741802220   14.72939087882964
C         1.61229830000868    3.73909975096002   13.46400908798776
C         1.10434036436332    0.07223124349099   12.59748686367881
H         1.43952476452034    0.03503756898784   11.56038195295505
H         0.01634272049416    0.07142765562797   12.59038514301199
H         1.46472077154483   -0.81691350984365   13.10776996566584
C         1.04057899110788    5.08023770643468   13.10721787928294
H         1.24288208144159    5.30506182585979   12.03016321177434
H         1.50722796642742    5.86399756959824   13.70029193392842
H        -0.03880425291590    5.10580139167996   13.27962118987236
C        -1.62185313234257    2.84360081972823   10.35295289712075
C        -2.83592415050701    2.69605470566981   11.03480523597263
C        -4.02851673298925    2.57624828060497   10.34410163839857
H        -4.94886119234376    2.46592015748677   10.89708498114153
C        -4.02300786846522    2.59215724746178    8.95971320587978
H        -4.95347783630968    2.49322640829522    8.42163355416476
C        -2.82916219748840    2.72422785881598    8.26656090920674
H        -2.83046057273262    2.72331935397726    7.18670780613037
C        -1.63764382079682    2.85875838580530    8.95325267436170
H        -0.69228672692660    2.94249147592303    8.40640514111208
C        -2.43422393918139    1.61451139532542   13.07498693028220
C        -2.22441844056573    1.89082411785300   14.53680990274791
H        -2.51102471655556    1.01863829652439   15.11683615366292
H        -2.79039224390316    2.76414270449350   14.84632480310108
H        -1.16296555046910    2.07572489335944   14.69680089661016
O        -2.83562213744625    2.73613540171628   12.42902306989362
O        -2.30183679262425    0.55438904618043   12.53400285577051

