47
CSD_code = VIQXEA | q = 0 | S = 0 | Stoichiometry = C19H24Cl2IrN | MND = 8
Ir       15.99044821690760    0.48358306545055    2.24086543163344
Cl       16.41583543226450    0.68247197395867   -0.08538713977521
Cl       16.80317821739685   -1.74574777991133    2.30264904169328
C        14.39284543676053   -0.35424777419215    1.64907179045522
N        13.51041562936001   -0.96131616158302    1.17779186984686
C        12.67857211450030   -1.77502945195842    0.48243349129160
C        11.30667191004862   -1.74394285435007    0.75606595197069
C        10.47932176834676   -2.58562072867158    0.03119050478612
H         9.41684504747490   -2.58022071265274    0.22386352107225
C        11.00412924656585   -3.42933118980278   -0.93388418385324
H        10.34662335076793   -4.07968691008314   -1.49093334002602
C        12.36461317581458   -3.44491972564471   -1.18929760282687
H        12.76266815441431   -4.10666023509291   -1.94380186807850
C        13.23368315946885   -2.62105457630110   -0.48994103214335
C        10.78015656934696   -0.81722488307666    1.80698322451692
H         9.70218820170626   -0.91452160316142    1.90127913394522
H        11.02041140276345    0.21534886867980    1.55530875922499
H        11.23994070009840   -1.03723017960331    2.77000606915092
C        14.70292177736072   -2.61322982538977   -0.73964431489456
H        15.24807120360936   -2.86505864529250    0.17032753791010
H        15.03681127964781   -1.61835755507856   -1.03528512035793
H        14.96790829679553   -3.32173194054093   -1.51877285507963
C        15.41508499374427    1.98728522129075    3.84796311208815
C        16.07405382225547    2.63758384265384    2.76071896863046
C        17.44178927690638    2.15571751704698    2.71185716805439
C        17.59018990509841    1.16771287679274    3.69228690114453
C        16.31712144506945    1.01074268083104    4.37028523351155
C        14.07215084656390    2.33649636723708    4.40356039655150
H        14.18571079437135    3.11125406130576    5.16424880163834
H        13.60027195410773    1.47284114988956    4.86596350308015
H        13.41121878907200    2.71608763432938    3.62798359273125
C        15.58170302610853    3.81677288093681    1.98945079245827
H        14.49677478018162    3.88221357800937    2.01672968420295
H        15.89846466478018    3.75054946108526    0.95040385255763
H        15.99462676447927    4.73449142547841    2.41340805958389
C        18.48614698583858    2.73622191824508    1.81807461048852
H        18.62645887361816    3.79321882026455    2.05043091034341
H        18.18345291993190    2.65516860517605    0.77372475097253
H        19.43635728714530    2.22109744622578    1.93519253275404
C        18.83007065988130    0.44105018858141    4.09351853463880
H        19.06832215941071    0.66240399548040    5.13482231438452
H        19.67398226870310    0.72780897670752    3.47141910090092
H        18.68996062773693   -0.63619456008076    3.99920977697905
C        16.12548989305064    0.17689305986520    5.59341540393849
H        16.59088163790472    0.66629714344061    6.45154967202893
H        16.59076168062059   -0.79839000198291    5.46513614419460
H        15.07029365199591    0.03080453548513    5.81105731168267

