28
CSD_code = VIQYUQ | q = 0 | S = 0 | Stoichiometry = C9H12Cl2N4Zn | MND = 4
Zn        1.61429398344933    4.89417920305052    2.41933391089207
Cl        0.82694508503029    2.89852362124822    2.12867359722166
Cl        3.55289902681022    5.59298878505668    3.34497023128350
N        -0.15758944618348    8.29529350723670    3.95533940664479
N         0.30985010022975    6.25141116046815    3.32194403815406
N         1.87582262115056    8.08946311930217   -0.18691048874124
N         1.58989924201728    6.12178068634160    0.73143125156978
C         1.75054266677033    8.01456098205029    2.33071167567879
H         2.68205792457271    7.65786162084247    2.80731896759688
H         1.75025982404767    9.10142584156640    2.27638765487487
C         0.63338259591290    7.52027674640218    3.18318892160526
C        -1.02443494748099    7.45941638020894    4.60740999897737
H        -1.76122369767321    7.82784366752845    5.29036917662239
C        -0.72366955312553    6.19607653397191    4.20304662079990
H        -1.16779746536006    5.26058313158844    4.47427862493256
C        -0.09592939223856    9.72299489284432    4.10917193343691
H         0.88507066465618   10.02658420712997    4.47879461847979
H        -0.85166237646062   10.03356026580159    4.82751655321111
H        -0.29129684684732   10.22413999854062    3.15878212964785
C         1.72312525339643    7.40998132239414    0.96959028646401
C         1.83076382994783    7.17028742798785   -1.20101152553531
H         1.93191084904264    7.45387387017317   -2.22782862613316
C         1.65118925414252    5.95548202419468   -0.61617791895814
H         1.56058071369264    4.98407359203164   -1.05677852667538
C         2.08529640623592    9.50242313935198   -0.34647287748822
H         1.23583838757065   10.06670642307097    0.04396495457587
H         2.99249864867091    9.81649713895736    0.17265873253431
H         2.19347664802125    9.72581071065957   -1.40570332167315

