64
CSD_code = VIQYAV | q = 0 | S = 0 | Stoichiometry = C29H33PRu | MND = 9
Ru        2.82251343110465    8.32577722111400    6.20941526685130
P         1.69463671779551    6.86894822738491    4.88691884585404
C         1.34798117350622    8.05378066508390    7.53741430341962
C         0.43977781560828    8.09313364734778    8.33910078409990
C         3.57983374647330    6.62570665163607    6.94329112811076
C         4.24800459025577    5.67712169018238    7.29536999551504
C         4.84690476216717    9.02588615988967    5.52972882221482
C         3.89757379243627    9.37244599204709    4.55633119099874
H         4.08801205390651    9.13294975917005    3.51297466132476
C         2.74948483423505   10.13839922974593    4.89063546632324
H         2.08803766975849   10.46570561809637    4.09511778708161
C         2.52304093267823   10.56242797106317    6.20872496333933
C         3.49112932188196   10.21854801339005    7.19816276411820
H         3.37630417760105   10.60233192098725    8.20812352483288
C         4.62602119605604    9.46618511012683    6.86666085899729
H         5.38353156396950    9.26976657004736    7.62011946233923
C         6.11044694550092    8.29452356344298    5.18180130235638
H         6.11534483174835    7.99546362825428    4.13511818355370
H         6.20779617549214    7.39889638680394    5.79636648862834
H         6.97794101263375    8.93041840539662    5.36655975860015
C         1.37485015518964   11.47830953281056    6.56505061276270
H         1.29502476489533   11.50513921617304    7.65815506487766
C         0.03907147023233   10.97888733346720    6.01325275907458
H         0.01605932475906   11.02636692890811    4.92638110522454
H        -0.77300786164368   11.59426803169493    6.39369992681486
H        -0.12472925118083    9.94903360166670    6.33009427668572
C         1.68216680661887   12.89468723801692    6.06601077619055
H         1.76417478971477   12.91056748038911    4.98031666485747
H         2.61891168636501   13.25713534027122    6.48655223513883
H         0.88704692883867   13.57624828040090    6.35922652368655
C        -0.63288941270311    8.10656740631696    9.26388549572221
C        -1.23073904507881    9.31035390405328    9.64354670253085
H        -0.86100652481273   10.23789516361490    9.22885576365271
C        -2.28205855264162    9.31585852514078   10.53886195838573
H        -2.73791315003257   10.25311747236199   10.82768840355303
C        -2.75535720423756    8.12599964158729   11.06859252701314
H        -3.57781755828402    8.13382017240395   11.76937026223118
C        -2.16817037823349    6.92654986422535   10.69678477099790
H        -2.53484130052359    5.99708599513611   11.11003548935479
C        -1.11639342894683    6.91179907302353    9.80257282060875
H        -0.65119322547394    5.98056763018432    9.51219233232544
C         5.00834611850297    4.55463998726240    7.70541535913598
C         6.34482978502933    4.70112574494486    8.08445708846195
H         6.79025533648245    5.68666068026950    8.08155953264501
C         7.08850573956992    3.60172979083110    8.46472261326018
H         8.12205751914752    3.72692045269809    8.75711257323962
C         6.51610201286319    2.33968999461266    8.47345880867059
H         7.10068936902474    1.48112457770524    8.77098247502228
C         5.18997398346415    2.18452740197834    8.10116566487253
H         4.74004138267707    1.20134451633902    8.10976186496045
C         4.43956588396777    3.27864853035794    7.71919884923935
H         3.40448751661224    3.16084519233133    7.43020450804101
C         0.45966455483844    7.54508841380663    3.70520175615247
H        -0.29603438585645    8.08584479977780    4.27305346184689
H        -0.01062570004237    6.73737757335278    3.14577874953092
H         0.94433863899608    8.23021459842470    3.01136262528508
C         2.74877656167102    5.86001348306478    3.77479781630286
H         2.14388215156204    5.15562060004260    3.20527980814143
H         3.46129494296635    5.32261229232392    4.39960204430227
H         3.29399787928468    6.50746394876142    3.08984343526520
C         0.71705634756202    5.56870602179887    5.71389064588065
H         1.38102723645127    5.05535471821087    6.40820681450437
H         0.30209873707431    4.87201553055368    4.98594470346557
H        -0.07673738944785    6.04695688748840    6.28533677156008

