53
CSD_code = VIQZIG | q = 0 | S = 0 | Stoichiometry = C21H28I2NRh | MND = 8
Rh        3.61983833096968    4.21905711240033    4.08978629784166
I         5.00015212413285    4.43092582010982    1.80272465762012
I         2.70928539769928    1.72583611288440    3.70681722449958
C         2.12819970865002    4.75479749613014    3.06400997873653
N         1.22960862417033    5.02124584389649    2.36939797498926
C         0.16779391936542    5.34309046265166    1.59227086209835
C        -1.07257689452103    4.75792992494372    1.87522852764597
C        -2.14953997277263    5.12135794933685    1.08284383201876
H        -3.11806144547441    4.68594167601165    1.27918209319096
C        -1.99424031759355    6.02465126109113    0.04504317281259
H        -2.84548417204438    6.29610223062585   -0.56093766471503
C        -0.75306947014127    6.57418433224662   -0.22759269739030
H        -0.63844494517778    7.26678581571285   -1.04803705464721
C         0.35525218599474    6.24252440240567    0.53558397720104
C        -1.21757335547902    3.78687855466283    3.01074294238427
H        -0.38462517742842    3.07968753621672    3.00251073584341
H        -2.14126244152617    3.22076496777024    2.88415703205900
C        -1.25063699729382    4.50484075730010    4.36219451227352
H        -1.38583647035750    3.78143222972296    5.16238682111019
H        -2.07044621596087    5.21980105922662    4.39521751460832
H        -0.31973991419568    5.04160858721553    4.53628940254308
C         1.70951650440026    6.82798424608429    0.26124652331533
H         1.72241516927637    7.24712014882840   -0.74564010121095
H         2.46914915694857    6.04425113013801    0.31013551297124
C         2.06513896743941    7.92678310154174    1.26570891856622
H         3.03796587074766    8.34611334285235    1.02293742913770
H         2.10819458203497    7.52689172005692    2.27705793089668
H         1.32352377211585    8.72288003561094    1.24085230687474
C         3.41653131212742    5.58480215772261    5.84722770974664
C         4.66224434263592    5.80916872370288    5.18233364081632
C         5.46369703363526    4.60376599887502    5.31714038350952
C         4.68820621013567    3.63506058876541    5.97639304071333
C         3.39106964854165    4.22090582044912    6.27364238572142
C         2.38771328322985    6.62613073454228    6.16005520239386
H         2.65322790933374    7.11370986712593    7.10045890002547
H         1.39726817437263    6.18959740351636    6.27494668806770
H         2.34034231617554    7.39045013250332    5.38615834890954
C         5.18954974260020    7.12609620295821    4.71181685062032
H         5.81202471853779    7.56423422288864    5.49482058163327
H         4.38240172466400    7.82017163266979    4.48592171337358
H         5.80237873116058    7.01052453507203    3.81917317761578
C         6.91991323474509    4.50118050303821    4.99590049249731
H         7.49738246897350    4.79427511431579    5.87560918968040
H         7.19478319800110    5.15666610927492    4.17257584315755
H         7.19776231644081    3.48296556238922    4.72976778300181
C         5.17033177161797    2.31253841261771    6.48035637639073
H         5.61888973484722    2.45003991762837    7.46672893996068
H         5.92404371598179    1.88833311523780    5.81944117097235
H         4.35565185860066    1.59763297804016    6.57176398462964
C         2.35696122131070    3.58489689121237    7.14470988594275
H         2.67106215082468    3.66190963640550    8.18778248670054
H         2.23366899438334    2.52970471568385    6.90658188115173
H         1.39089766321483    4.07457116566372    7.03937467944618

