47
CSD_code = VIQZAY | q = 0 | S = 0 | Stoichiometry = C19H24I2NRh | MND = 8
Rh        0.03995894441436    5.02920038617675   13.85626224047136
I        -1.54504003468879    6.77308409434272   12.57866695756789
I         1.65658575122627    6.86772477574422   14.94810675935717
C         1.15162161309907    5.13762674613198   12.32758191619654
N         1.81900052911583    5.29099129662495   11.38204200120985
C         2.57031085813260    5.62156986235788   10.30259493839100
C         3.08163707131475    4.59565849534141    9.50012051562015
C         3.84610734237195    4.95157507008159    8.40173468809172
H         4.25200582814942    4.17862274588330    7.76637696696832
C         4.09009809709854    6.28446098077776    8.11564241066944
H         4.68787057678751    6.54601006885084    7.25572921689596
C         3.57253148897263    7.28295684571251    8.92245397534424
H         3.76727551175156    8.31881783291706    8.68953480894686
C         2.80124362393062    6.97767635445329   10.03344657914254
C         2.79206671859499    3.16605681906894    9.83999831091059
H         3.16352989065425    2.92813507518580   10.83713382721576
H         3.26216106162614    2.49745725734613    9.12428845723783
H         1.71679176406928    2.98501056309261    9.83307189091020
C         2.22883998516126    8.03368850658528   10.91848193405653
H         2.59255423629376    7.92023504161162   11.93971530105677
H         1.14186578447629    7.96005036423991   10.95198253940215
H         2.49852165120902    9.02332871938554   10.56229328695402
C        -0.05028052239435    2.82178191792764   14.13197745191554
C        -1.36026385297805    3.34441462401708   13.89415392307485
C        -1.70573999684241    4.20609864839207   15.01214514247624
C        -0.59652590833007    4.27189408036738   15.87345718304212
C         0.45870562453567    3.44412041358589   15.31434367059823
C         0.61245840657467    1.72095079550449   13.36398763150569
H         0.32434261940322    0.76213632706288   13.80002967502291
H         1.69713375617692    1.79964145812060   13.40833700232032
H         0.30884835433075    1.72184912006584   12.31879106359142
C        -2.33283222894033    2.86649350844132   12.86471728236019
H        -2.99267423767136    2.12023316116399   13.31215102762466
H        -1.82367490840622    2.41149677534852   12.01745842478713
H        -2.95042739343104    3.68357531083727   12.49460770081225
C        -3.06935694605188    4.75159169193313   15.28953149938686
H        -3.61597049024671    4.03837823953070   15.91053465782298
H        -3.63161261185928    4.90883615817964   14.37201759307455
H        -3.01737170496306    5.69831508722390   15.82425305805187
C        -0.57179605787424    4.89807257602669   17.23087181957582
H        -0.94833635094344    4.17853907200641   17.96111417488194
H        -1.20242394123189    5.78417668694672   17.26931659029299
H         0.43629343674471    5.18433262092355   17.52189329475418
C         1.72029492906920    3.08549787041235   16.02995447985898
H         1.49980927937534    2.33107829246937   16.78816269502287
H         2.15122743596309    3.95078837092334   16.53068757920273
H         2.46443501623414    2.67946929068410   15.34774585635468

