67
CSD_code = VIQZOL | q = 0 | S = 0 | Stoichiometry = C32H28MoO4P2 | MND = 6
Mo       -0.10994175696060    9.72972811455254    3.66325826865071
P         2.07196666864200    8.75927724004408    3.40426553528278
P         0.84752052044130    9.30731469553485    5.82445484485811
O         1.48548474850149   12.38461367212153    3.59168292054275
O        -1.79399750550575    7.14182925309778    3.91602100457554
O        -2.67791703204446   11.21835366378157    4.51588249815761
O        -0.73093529973549   10.03957984634686    0.65331425562267
C         0.89066185309730   11.40889052207996    3.61229858220198
C        -1.14597466724310    8.07356935414455    3.78603431717433
C        -1.73821089742444   10.65701433997013    4.18738767860150
C        -0.53094511564213    9.92755034342122    1.77263131076678
C         2.58312140508032    8.96570345461875    5.19618298514675
H         3.04395320011299    9.96778758443564    5.24865416640951
C         3.47161438844049    7.93968933252136    5.89696132232640
H         3.09689266397883    7.76199096679467    6.91025984427857
H         3.42422834646843    6.98055550895956    5.37329014671322
C         4.92987508231966    8.38868098407479    5.97727979128339
H         5.30156570822047    8.60439196284877    4.97253909623549
H         4.99463656134821    9.31160605646754    6.56031551223608
C         5.80508206601497    7.31915970789817    6.61833230586196
H         6.83821796897952    7.65347696886744    6.67373819390078
H         5.77095534451255    6.40066593579087    6.03606378991329
H         5.46129527875360    7.09713117310885    7.62640056820312
C         3.27913884827888    9.65640347633250    2.38347052565527
C         4.26550970859136   10.52510553577863    2.83041047025500
H         4.43034948270128   10.68506831245375    3.88716312531261
C         5.05122625116435   11.20578302984855    1.91494255229216
H         5.81845157010959   11.87948027058572    2.26834388155654
C         4.85357421959971   11.03297679814046    0.55646787091174
H         5.46713966315324   11.57104870627641   -0.15068010985059
C         3.86055285919932   10.17706391257163    0.10377045863557
H         3.69631251779060   10.04887158154453   -0.95586372786207
C         3.07637800572860    9.49658519091601    1.01253390885290
H         2.28702617136284    8.83316867178730    0.67529016288564
C         2.52314483665513    7.06043400864208    2.93505531549094
C         3.85583229421330    6.65851381191879    2.86965622986709
H         4.64132131939461    7.36865664190380    3.08959832299030
C         4.16735214230915    5.36189641280635    2.50797857276821
H         5.20072975468760    5.05008576839523    2.46146503858550
C         3.15711797361891    4.46330898287647    2.19883899763502
H         3.40573068682431    3.45114919373796    1.91596087226360
C         1.83266471210642    4.86570440972800    2.23836960125370
H         1.04643866331375    4.17149465604245    1.98101694356613
C         1.51567843050047    6.16264201960472    2.60334316363677
H         0.48474492338756    6.49392864257148    2.62110146540017
C         0.41387420559354    7.82515959962446    6.76896737318636
C         0.56837603266082    6.58646551750965    6.15087659737561
H         1.01139806706440    6.53628475999867    5.16244041085853
C         0.15641173809948    5.43413053359485    6.78976300685794
H         0.28402115632352    4.47584507121936    6.30770392334603
C        -0.42877985500756    5.51091555852004    8.04455082996653
H        -0.75543944295220    4.61044718288975    8.54313326048690
C        -0.60533606900107    6.74201215488541    8.65366154602395
H        -1.07325236367923    6.80199605249655    9.62543812616920
C        -0.19096163572074    7.90008607395016    8.01939629137993
H        -0.33929396755384    8.86310391080989    8.48926657204619
C         1.11144485462541   10.56126728961497    7.10925910462582
C         0.40248803301856   11.75228784295550    7.00027784096866
H        -0.29476492106502   11.87747470827314    6.18015665978675
C         0.58572005212466   12.75870613778126    7.93253488264450
H         0.03131398696553   13.68128686183968    7.84563027830979
C         1.48132163486826   12.58074193038499    8.97349567882133
H         1.62810659992535   13.36594883417560    9.70033397339638
C         2.18999472230724   11.39389480950623    9.08729218329700
H         2.88594613128770   11.25672436496909    9.90241426885343
C         2.00661758083550   10.38382184043979    8.16242083444253
H         2.55082889424556    9.45466824865542    8.25920377611707

