82
CSD_code = VIQZEB | q = 0 | S = 0 | Stoichiometry = C29H46MoO4P2 | MND = 6
Mo        4.14231000796116   11.26306758472185   21.44153833704306
P         5.14279051087690   12.96343789770195   20.03012001425904
P         4.99279761152828   13.09274432845335   22.81385911873563
O         3.41499633903016    9.23055004306667   19.23847975396458
O         6.83639163442355    9.74987882849381   21.59701856759230
O         3.07280602935775    9.46759558472077   23.71536668526931
O         1.24817784260230   12.27224566596325   21.02864329124491
C         3.66944721900655    9.97682227104152   20.06768559429749
C         5.86536927039280   10.35444149566323   21.57073425198317
C         3.46076723120964   10.12104734893712   22.86013168947575
C         2.33929386228337   11.98431885495944   21.21901950809206
C         5.50110726145911   14.18287557845091   21.39163526357461
H         4.87373763628841   15.07389071377355   21.33067041496528
H         6.55189814193978   14.48645038174851   21.43713558021442
C         6.86459043818215   12.67478635626026   19.39770532360428
H         7.40276830387333   12.40389854362981   20.32291222061932
C         6.94840560865631   11.47480484181799   18.45719078120552
H         6.39596922354803   10.62837272733754   18.87710962702351
H         6.50155438136536   11.72624100384449   17.49254119943541
C         8.41303411881779   11.10168868792911   18.24135562000317
H         8.48272304975096   10.24777818997190   17.56515916796310
H         8.85535992647576   10.80708910137604   19.19583955896710
C         9.18250898045223   12.28657297880256   17.66121256862582
H        10.23664336739352   12.02587602981375   17.54903908017698
H         8.78958061094150   12.51875085537441   16.66836019418304
C         9.04760859938392   13.51799826089373   18.55416951579243
H         9.56905362220168   14.36389961162168   18.10061641215238
H         9.51447076219745   13.31848036324019   19.52203353378215
C         7.57433169465558   13.86835787450532   18.76142265685283
H         7.13020757921071   14.09144419126402   17.78917958236612
H         7.48484869065599   14.76135957217680   19.38627054580202
C         4.27895768692696   13.88506170087681   18.66402385929796
H         5.01342316496761   14.45000307141259   18.07687419934901
C         3.20923236161157   14.84544856326464   19.18084449664734
H         3.66790662822557   15.66221727677767   19.74437911544495
H         2.52991908980133   14.30530968575023   19.84614905515568
C         2.41501160120017   15.44773580603167   18.02301824802600
H         1.64595948002365   16.11417797566161   18.41937796522298
H         3.08571455050920   16.04511422993562   17.39928322969657
C         1.77372782054878   14.35698404888840   17.17311413727494
H         1.21843115993738   14.80645962330932   16.34763454420441
H         1.06951067921628   13.78821381123094   17.78368824977273
C         2.84780500678154   13.41807742449737   16.63612812177398
H         3.52837351135625   13.97468374720668   15.98596470484036
H         2.39099234364392   12.62441580785700   16.04234350936706
C         3.62828132857671   12.80625228488040   17.79387487698806
H         4.38862630254471   12.12066907450533   17.41285514191057
H         2.94600106303078   12.22099029770453   18.41986579903809
C         6.64624881706631   12.83892460770860   23.62147769392645
H         7.28013800572711   12.55801692915952   22.76184036567953
C         6.65528740655640   11.65173504934997   24.58348982751295
H         6.18459738878958   10.78523634964727   24.10970341930907
H         6.08531767946078   11.88302127550112   25.48439384030298
C         8.09431833451494   11.32777736121845   24.97666718145607
H         8.10793362461260   10.48582568801820   25.67099847175014
H         8.65677419108778   11.03447016587472   24.08703638180722
C         8.75380295365698   12.54440929932060   25.62227548171428
H         9.79067631409093   12.31492513163560   25.87532030838099
H         8.23052168290875   12.78778446170887   26.55013659260960
C         8.70606886155169   13.75003226272503   24.68683235153038
H         9.29158902384100   13.53518586403067   23.78919674187878
H         9.15292365274844   14.61830962056988   25.17626192576180
C         7.26419011483107   14.06526689577139   24.28980881097519
H         6.69953419245643   14.32807736963464   25.18609716672189
H         7.24543111012854   14.92658946849489   23.61581333948520
C         4.05981927647134   14.26164764306992   23.91745450937371
H         4.66490800327541   15.16882390948424   24.05802326632660
C         2.73489394220385   14.62306103608094   23.24704299226831
H         2.90518426062117   15.09707665113524   22.27711756638097
H         2.17143662483283   13.70118101422725   23.07804094297276
C         1.90719427353753   15.55138115447925   24.13044170250894
H         2.45420314609411   16.48300198811686   24.29886489004459
H         0.97152927985000   15.79873196269781   23.62519086057037
C         1.61785164429479   14.87998991574870   25.46807469704768
H         1.03794811606657   15.54858526115569   26.10727945685315
H         1.02584250195099   13.97819721734756   25.29876124290057
C         2.92552949095233   14.50536110760365   26.15544811252308
H         2.71980229480704   13.99800338043723   27.10009915210277
H         3.48855784108527   15.41545549173445   26.38084165389099
C         3.77256074573027   13.59938436745605   25.26451004028242
H         4.70445078425019   13.37041838731127   25.78304964070328
H         3.24741108470959   12.65553151415822   25.08453445913142

