65
CSD_code = VIQZIE | q = 1 | S = 0 | Stoichiometry = C24H33CuN5S2(1+) | MND = 3
Cu        8.78536693643178    3.13519925228642    3.67131033091920
S        11.80575706255142    1.94400027735721    5.22622484532246
S         7.74336267496243    1.10368333314798    0.84109766331905
N        12.66156284224786    2.11305738003004    2.64077275197522
N        10.53848552199305    2.63782915223952    2.89057737721501
N         5.60530719255420    2.78512407293983    1.06356632647433
N         7.14278449904050    3.12153383216077    2.60205356479426
N         8.90796258847930    3.92428683557070    5.35532944928519
C         9.59488696764308    0.29421911974992    4.99483357491910
C         9.15141680273121   -0.04943845699171    3.71345630047222
C         7.78667812355795    0.04798223292283    3.39904801460169
C         6.87953025271381    0.49867811252984    4.36053584924765
C         7.34616701423942    0.81686348725602    5.62810835696464
H         6.62719312475189    1.14165599108381    6.36158077234975
C         8.68305721700082    0.73626676501604    5.96739073132784
C        11.04380838169744    0.25175928668047    5.34360934468569
H        11.63564913142433   -0.40267234505396    4.71200273490160
H        11.21207428584454   -0.02335938131736    6.38202061088970
C        11.63890104914255    2.24696363805917    3.51379137234529
C        12.17501286346760    2.42495770279980    1.40812370771313
H        12.78737632758732    2.39739753343322    0.53117897389626
C        10.85954562656222    2.74494223232271    1.57485139373202
H        10.13236268836822    3.03460477566991    0.84498106928280
C        14.01195031059346    1.72318888196761    2.93761926054817
H        14.10099203658320    1.52842561113403    4.00555911962077
H        14.70195019946679    2.52174931590111    2.66331167985920
H        14.27515633283422    0.82415335995846    2.37841671364357
C        10.10522152277583   -0.60978696534589    2.68669681076783
H        11.10469476499299   -0.19497105176291    2.80862466149152
H         9.78906685313783   -0.33404043277774    1.68133245851975
C        10.18660063708798   -2.13451362445197    2.80741989438219
H        10.85338216802783   -2.53744966683923    2.04893615673180
H         9.20721948219969   -2.58932709586760    2.68210467720943
H        10.56107320653724   -2.42172046388839    3.78757208845126
C         7.31606325188438   -0.26802640357191    2.01904737928082
H         6.24138282006172   -0.40835651610271    1.95833095473830
H         7.80398358316524   -1.13687542826326    1.58573954775115
C         6.80445646907293    2.39524156690068    1.54883639421821
C         5.16457985727435    3.79901740406799    1.85798887106043
H         4.22923332094781    4.29004310349143    1.68756115973158
C         6.12204417992530    3.99593994256974    2.80911693530109
H         6.14561520164020    4.69853764371918    3.61640582710345
C         4.91516691072951    2.24816104677940   -0.07617951316106
H         5.52142825654790    1.46042026030911   -0.52150963120039
H         4.74903062396145    3.03094768544867   -0.81675826958070
H         3.94936931723507    1.83992722265137    0.22577529822758
C         5.39322553913006    0.58262516305563    4.13550439949383
H         5.14966219215391    0.88460901145115    3.11629503005055
H         4.98026122356314    1.34259247468410    4.80148623243478
C         4.72879802469831   -0.76155246068520    4.44444045852541
H         3.65295532257152   -0.69336555941452    4.30363033019772
H         4.92490951363765   -1.04793937772015    5.47441935383539
H         5.11561751893235   -1.54541726863159    3.79685194185220
C         9.16237745565643    1.08744013795654    7.35238249200172
H         9.53727842128445    0.17485841972094    7.82799128444148
H        10.00663972638044    1.77693901949132    7.26510626727868
C         8.11912592585178    1.70937112148635    8.27295625539726
H         8.58662101388527    1.97896628238763    9.21765956057421
H         7.31909696096636    1.00678175542088    8.49060699303942
H         7.69155750816138    2.60596136244161    7.82924770635253
C         9.50306263747501    4.34261899721121    6.24627360928736
C        10.21014621662137    4.86158197696930    7.36740233081316
H        10.26940442026132    5.94732851618547    7.29291169163293
H        11.21848429842305    4.44587892508118    7.38135616524883
H         9.69466559867698    4.59320127699860    8.28958430619578

