46
CSD_code = VIRBIJ | q = 0 | S = 0 | Stoichiometry = C19H23I2NRu | MND = 9
Ru        7.18043977552898    9.16436352440728    4.56879133963043
I         9.32702863892580    8.69537823826464    2.97456541014923
I         8.66620456793529    8.82203039975978    6.80930179710650
C         7.00470031766458    7.27019509000379    4.60395643380292
N         7.04203945833458    6.10207871893018    4.63164330237442
C         7.17135430365609    4.75241605772595    4.69204212841575
C         7.11925224456273    4.12700153934529    5.94397828033280
C         7.27029852606210    2.75009690687012    5.98131613077471
H         7.23803552678630    2.24257530774813    6.93370454484033
C         7.46756640326381    2.02641663179405    4.81757042178789
H         7.58423279953586    0.95435456436115    4.86693076680217
C         7.52341359807859    2.66746709198214    3.59145386787244
H         7.68745297522619    2.09578761388786    2.69035955691535
C         7.37782210387649    4.04237181470048    3.50308008853081
C         6.92570492983501    4.94321541720988    7.18073814428938
H         6.87574755066776    4.30720528669124    8.05963853984379
H         6.00827623963493    5.52874465619009    7.11710481075319
H         7.75142170972124    5.64445109614118    7.30395933406536
C         7.44878901561237    4.77126160361736    2.19933643861637
H         8.23759237212728    5.52334721703147    2.22849483590014
H         6.50811221213350    5.28430426498057    1.99584126848191
H         7.65321622672773    4.08357536924306    1.38397054068193
C         5.97234042286842   10.77381883813609    5.71899931197715
C         6.90250571701178   11.44229793507255    4.87540159172926
H         7.54996380755365   12.20399076833909    5.29960852701369
C         6.93370740380768   11.17843751351875    3.50811800457549
H         7.61250854516730   11.73622907986737    2.86802328914840
C         6.05421528302565   10.22955361462221    2.91402780505324
C         5.13183794255339    9.57294148619139    3.75306065929347
H         4.39104460580790    8.90516240624136    3.32546120848579
C         5.08250159253667    9.85096601427027    5.14197020746874
H         4.31252674311048    9.39271833396034    5.75582555248036
C         5.86008279490895   11.14759258175417    7.16411728084269
H         5.17959048936200   11.99651030788129    7.26137051027269
H         6.82547358009258   11.43694848862033    7.57563162626369
H         5.46698044416726   10.32297813760257    7.75656238233921
C         6.04591468257470   10.05425737053783    1.41447799788860
H         7.03148687868882   10.34562222788356    1.03204441694568
C         5.78708284114635    8.61071670292910    0.98290715014099
H         6.46398383645590    7.93152730833700    1.49983620262382
H         5.96289774327057    8.51361627430791   -0.08509851240102
H         4.76073880926805    8.30924995240205    1.18392410433948
C         4.99645961327445   10.99998351029617    0.81881152012019
H         5.20422615550866   12.03338551564479    1.09178384727758
H         4.00051331572616   10.74191700097205    1.17645080799519
H         5.00371525616210   10.92294021978711   -0.26529347378591

