53
CSD_code = VIRDUW | q = 0 | S = 0 | Stoichiometry = C24H24BMnO3 | MND = 9
Mn        2.26030785387399   10.33444995736622    3.75011330367026
C         1.12570270517405    9.65772271752218    2.51606363770464
O         0.07398213326159    9.51293120687155    1.99722882808462
C         1.14966068741929    9.65320867321365    4.94620956539680
O         0.39388074806217    9.20112489126151    5.69372956278903
C         4.03922996787579   11.69343865610163    3.87049645969600
H         5.08616834461733   11.48296568071958    4.03009152828076
C         3.09423507820038   11.99011407483328    4.87703058517794
H         3.31702418277224   12.11766031001168    5.92838990277892
C         1.88670816274652   12.40056263782540    4.23395882982378
H         1.03169885402728   12.84764244965003    4.72492439301476
C         2.08050214825385   12.28689578628950    2.84637502744279
H         1.39649685976640   12.62451071409463    2.08068245274205
C         3.41203050670550   11.83861665491019    2.62680865295578
H         3.90555158698832   11.78094863380524    1.66608633059002
B         2.61424600098993    9.05991998551429    1.81467474920114
C         2.60317981285853    8.99524541588817    0.20149229508139
C         4.03979318093880    8.82451983255934   -0.31763963504313
H         4.03493556657358    8.69570715881953   -1.39827459194297
H         4.50471815379705    7.95347923264441    0.13622347570694
H         4.64432662307949    9.69725711057195   -0.07957835447179
C         1.78877945604406    7.74578066636749   -0.18552355072644
H         1.79210058784625    7.62403234760868   -1.26705537637528
H         0.75773030763661    7.84543450585603    0.14576948954274
H         2.21585537327199    6.85260190307277    0.26502331035302
C         1.96858585891182   10.21244170527475   -0.48270613113518
H         1.97004854666041   10.07441138918706   -1.56253862874725
H         2.52248252213802   11.12219780310602   -0.26027619849532
H         0.93934728985326   10.34564377974922   -0.15941877795811
C         3.45194518481641    8.54645715878153    3.92078259382798
O         3.58325839494876    8.46473476016582    2.48549943655355
C         2.79272025501415    7.28425432905888    4.42486548776561
C         3.27550301941738    6.58529885887486    5.53109961532734
H         4.15050881892674    6.93575823676624    6.05470413054783
C         2.65505979008373    5.42888597625935    5.96838992498735
H         3.04839712253225    4.91267669878609    6.83174560301094
C         1.54822437909727    4.92914492112374    5.30736184519022
H         1.06392801314236    4.02850576385776    5.65294054445588
C         1.07053272239476    5.59794952311818    4.19274024102132
H         0.21097956253241    5.21969082725698    3.65993518485816
C         1.68299545550472    6.75703474651183    3.75967483315863
H         1.28273186949033    7.26481828601894    2.89246839530606
C         4.77428351459151    8.82939332322408    4.54814805742532
C         5.96002541545587    8.73930921379857    3.82270434380126
H         5.92450901702238    8.44056609505855    2.78571128115719
C         7.17305662966769    9.03035727351156    4.42191258199419
H         8.08400319699737    8.96030545624105    3.84481026342559
C         7.22385241983415    9.40836268311362    5.75221243989666
H         8.17159923924427    9.63835334839659    6.21613382731020
C         6.04944577474022    9.49475169692516    6.48567554964488
H         6.08283944412678    9.79172538894028    7.52388426130343
C         4.83607259356979    9.20988289071960    5.89239980878770
H         3.91391906650702    9.30081666279480    6.45163861410817

