27
CSD_code = VIRHIP | q = 0 | S = 0 | Stoichiometry = C8H8N6O2S2Zn | MND = 4
Zn        0.00002120968287    4.02323850353852    0.00000229604882
S         0.07423020040623    4.47559619874542    4.47110957293832
O        -1.01445020280681    2.48888684865257    0.56214164422233
N         0.20820785798361    4.49904194463273    1.91864748613490
N         0.87907083972488    5.58103178120475    2.31877765958785
C        -0.30140836890891    3.77197526461532    2.90854998747090
N        -1.00702234547065    2.66254627680075    2.85981593272785
C         0.90925785886941    5.72063491832529    3.58415167015794
H         1.40419810941500    6.53333771610381    4.07495891518338
C        -1.32269138372459    2.08675265221030    1.71467763244136
C        -2.13157541782366    0.82717889114332    1.84222563042242
H        -2.32289792672929    0.61343308573101    2.88789025836426
H        -1.58685100928266    0.00649375538145    1.38105599763783
H        -3.06755425342185    0.94858829043260    1.30182220350708
S        -0.07446428864018    3.57104041687786   -4.47111331937209
O         1.01458033508589    5.55753772746168   -0.56213505322832
N        -0.20829925165137    3.54751257994287   -1.91864487634159
N        -0.87927291003385    2.46559222237997   -2.31877592877732
C         0.30132304292182    4.27457293259464   -2.90854903581446
N         1.00703885619709    5.38393645993942   -2.85981402881324
C        -0.90954309391927    2.32603726833902   -3.58415325476477
H        -1.40457684605136    1.51339210786659   -4.07496183751057
C         1.32281256964323    5.95966963035465   -1.71467416540502
C         2.13180369342128    7.21917462508877   -1.84222724855701
H         2.32310795973134    7.43292274554783   -2.88789471378341
H         1.58716377185922    8.03989790189757   -1.38102442051509
H         3.06779099352257    7.09767725419128   -1.30185900396235

