73
CSD_code = VIRHAG | q = 0 | S = 0 | Stoichiometry = C22H44O2RuSi4 | MND = 8
Ru        4.70974570348835   10.04203545259320    9.15478983774752
Si        3.27195960914909   10.80894961656413   10.90692232262578
H         1.90432033011986   10.25188544954812   10.64124425333408
H         3.57401414255474   10.06972741721355   12.18026512781419
Si        1.20691488045278   12.41278243701562   12.54072924503102
Si        2.52995942401011   13.78705600164064    9.99104665132203
Si        4.27874552103752   13.27902974183723   12.59054628358240
O         7.08159300457435    9.88784040466706   10.96512456391136
O         5.53590797572102   12.50197710753483    7.68306031406538
C         2.83120194782979   12.61371673045110   11.50211602271421
C        -0.33758850658358   12.11316709354281   11.44842058198850
H        -0.23054695599638   11.20578471680549   10.86481111112030
H        -0.52922091103536   12.92495046193740   10.75789165238425
H        -1.22243727017077   11.99577744357752   12.06717931339831
C         0.81684821993388   13.92262937357490   13.64290767078796
H        -0.15701819419185   13.80659764738980   14.10813792910656
H         0.79932321986083   14.84733531553006   13.08129126898199
H         1.54517857912624   14.03039697798578   14.43795042089434
C         1.20345052031765   10.91298617256211   13.72665072945536
H         2.07887545900650   10.88678206518540   14.36165744149520
H         1.17361869261665    9.98074799894672   13.17500999133604
H         0.33145750647686   10.94059024850450   14.37396941080654
C         1.82102123181783   12.78544067330764    8.52502416202531
H         2.55952075112806   12.06361171013608    8.17797618714361
H         1.56825205497471   13.42979454237757    7.68811577454201
H         0.92824840149376   12.23875104113941    8.80341328859697
C         4.08073678160488   14.68884112390577    9.32399401136816
H         5.00482824538805   14.21189815603194    9.62070204173687
H         4.11741549353097   15.71421678474680    9.67729297907914
H         4.06876746704829   14.72530094384698    8.23899612763615
C         1.32428646479852   15.23308311701454   10.33356593349250
H         0.33792531568802   14.90667125582076   10.63793635262872
H         1.20683685686925   15.83996240447744    9.44011118847859
H         1.71155686152480   15.88049179959663   11.11229704122555
C         4.38535468185223   12.44116381484318   14.30405137581643
H         4.44937650179598   11.36296509019547   14.20847719840816
H         3.52998181580693   12.67241245214300   14.92807920924418
H         5.27358856740746   12.77397131055869   14.83339082611998
C         4.14955803624313   15.15610028490054   12.92249297897287
H         4.93247101779564   15.47433291255412   13.60458923332713
H         3.20060217763398   15.42614755282265   13.36868300404516
H         4.25989329736875   15.72916803419583   12.00993491625828
C         5.98656666742457   12.96845134996529   11.78340582023738
H         5.89340245422410   12.54202187021277   10.78631710484831
H         6.57321758919093   12.27227377607840   12.37356033980970
H         6.56176645613017   13.88502675614145   11.70099347019200
C         6.14458557213149   10.04809388415345   10.31520358716876
C         5.17489100325023   11.64721703049536    8.36688543620480
C         3.01872250417370    8.87109975455241    8.18446573563108
C         3.66630823734327    8.05236503014847    9.17658134566867
C         5.01869579172876    7.84889613441673    8.76084725835420
C         5.22683911069734    8.56451547912244    7.54292062483546
C         3.98868990975788    9.19959392262501    7.19198066075083
C         1.53409309134097    9.00829906047639    8.02017089283234
H         1.27715849165993    9.88251753535300    7.42624437306937
H         1.03358623509445    9.09108746184218    8.98231412609170
H         1.14619787215008    8.12238068662210    7.51106431893037
C         2.95076201257492    7.24253214907110   10.21863293403752
H         2.55679084069204    6.32920385853557    9.76564609915230
H         2.11991342308317    7.79834136441106   10.64708621203187
H         3.62063773561966    6.96021009627321   11.02831735221934
C         5.97100991034266    6.85315656129586    9.35706675401315
H         5.80770069071000    5.87559479663985    8.89690167961870
H         5.82008429569016    6.75216514748641   10.43054675595132
H         7.00726391368008    7.13849618958515    9.18414247414155
C         6.42138103900274    8.43861611912079    6.64490889048944
H         7.33257732675507    8.27789050860241    7.21793387036532
H         6.55543464915033    9.33149547409461    6.03697227428750
H         6.28828886657334    7.58724907901485    5.97259075012724
C         3.69457092355839    9.83082678963957    5.86057932457028
H         3.42497425656297    9.05297504427569    5.14206062620809
H         4.56079016803556   10.36391096367756    5.47168348701806
H         2.86527404160038   10.53282524685028    5.92802944710377

