27
CSD_code = VIRHOV | q = 0 | S = 0 | Stoichiometry = C8H8N6NiO2S2 | MND = 4
C         1.67643378386168    3.17189151678191    7.74508655965113
H         1.88697149513278    3.40449328150063    6.70728938833274
H         2.60215994473891    3.04348822352432    8.30113049860143
H         1.11858834962492    3.98204370399903    8.20907431001307
Ni       -0.42197398131381   -0.00000003986086    9.47501162058077
S        -0.53106637318600   -0.50660009069687    5.11029049911795
N        -0.63539130714000   -0.47255119995923    7.66270156565373
O         0.54921579853520    1.48594490257093    8.97042416056979
N        -1.30974156101043   -1.56184559493154    7.29768056182075
N         0.57011669998997    1.34721353139007    6.66728057681064
C         0.87031006177010    1.90706256975345    7.82841741752379
C        -0.13690030028620    0.23247311736150    6.64303323313013
C        -1.35711793774234   -1.73437086017822    6.03729668148080
H        -1.85725996673455   -2.55760305315117    5.57053931212906
C        -2.52035977253377   -3.17190602287058   11.20493605774202
H        -2.73090695763976   -3.40450362381263   12.24273173135244
H        -3.44608056610181   -3.04351734724562   10.64888076604432
H        -1.96249917288964   -3.98205348998130   10.74096020017259
S        -0.31290750011972    0.50661797234701   13.83973210098346
N        -0.20856311066021    0.47255457905158   11.28732144603586
O        -1.39315774523134   -1.48594831024001    9.97959872441483
N         0.46577747471312    1.56185532217914   11.65234109571307
N        -1.41406503122600   -1.34721282988118   12.28274201896012
C        -1.71425043291090   -1.90706876105856   11.12160562974237
C        -0.70705643252316   -0.23246870471017   12.30698907851463
C         0.51314519985960    1.73438724134904   12.91272408402600
H         1.01327934102337    2.55762396676934   13.37948068088254

