85
CSD_code = VIRJAH | q = 1 | S = 0 | Stoichiometry = C25H55FeP4(1+) | MND = 7
Fe        0.07287484616393   -0.05348969310706    0.03112316928450
P        -1.44662878289776    0.93272323648097    1.33624514639084
P        -1.12450247387183   -1.87550467160546    0.46625234549743
P         1.57098977946245   -1.25627020239269   -1.08518914348923
P         1.75440388987672    0.21634393507838    1.41851615266044
C         0.65091857953834    1.81560114482551   -0.73124620872475
C         0.07221616395491    1.05926894470269   -1.76237458693769
C        -1.27261214818044    0.70098262458867   -1.70360555050508
C        -1.92923740876493   -0.03533760440814   -2.75728764895139
C        -3.24949341981366   -0.12560965266234   -2.91007892316371
C        -1.26466198441166    0.56848065148819    3.14108506991824
C        -2.07524912476780    2.67849736116712    1.33636323069432
C        -3.04180062566778    0.06873869781109    0.99113647444331
C        -2.45766178772966    0.83803995422706    4.05153676484492
C        -1.20397034981216    3.72305459890011    2.02252313205186
C        -1.44183830921041   -2.86936756568286   -1.07374090090162
C        -0.75015781389072   -3.21871563986571    1.69908821260299
C        -2.80450156515835   -1.42468590582037    1.12296510547272
C        -2.86936496752049   -3.28540089806273   -1.40558100483158
C        -1.72578544324815   -4.39100088408151    1.72349930098471
C         2.12498739287079   -2.81851597273121   -0.26777265482435
C         1.48431814437931   -1.81695281072191   -2.85860435376809
C         3.12749060539031   -0.28066159390920   -0.97088993373311
C         3.43534082473332   -3.42990414052702   -0.75236505189974
C         2.61188853021926   -1.36488471569984   -3.78169151098988
C         2.02090372358097    1.90009029621998    2.14000765928475
C         1.92327212076775   -0.86944099957657    2.92498245585395
C         3.36796489764599    0.01636680845483    0.50508184703847
C         3.12884064841925    2.04913742007998    3.17564695306621
C         3.30125899928908   -1.38619690724541    3.32813397302953
H         1.67044887032550    2.14720501635015   -0.87442365891783
H         0.03903439083071    2.57274696061289   -0.26119662378324
H         0.68644817059273    0.70299473050100   -2.58298702800113
H        -1.92818057616176    1.36283507965446   -1.14894521541456
H        -1.28824150755819   -0.50645534861373   -3.49240707783039
H        -3.68955377557566   -0.65710369157911   -3.73497734836608
H        -3.93878763695071    0.34642206392782   -2.22856294620333
H        -0.40696053527171    1.14574711277047    3.49218733788319
H        -0.97631396722441   -0.48563426595025    3.19333810349391
H        -3.05586089973000    2.64355400284943    1.82180542769731
H        -2.24167153989422    2.96783401443492    0.29373780817627
H        -3.35714472774986    0.31455849419583   -0.02326489926324
H        -3.81971863617422    0.41341585232812    1.67727475974275
H        -2.17048152291053    0.64115927378829    5.08290159437364
H        -2.78323323787115    1.87304290151603    3.99105507368173
H        -3.30105959619859    0.19400825492986    3.81747619858916
H        -1.70753754603449    4.68758187189314    1.99232058156360
H        -1.03148916290574    3.47103518864425    3.06629658743983
H        -0.24247383854150    3.83576604163692    1.52758971504181
H        -0.80601913071936   -3.75698594777593   -1.00642896979310
H        -1.06058550665000   -2.25387854247608   -1.89003523299484
H        -0.74136264013492   -2.73571717845184    2.68174546303787
H         0.25591577790567   -3.59598131331227    1.51182912076120
H        -2.81386235254504   -1.70424502042118    2.18000195522488
H        -3.58362100549211   -1.99229650317001    0.61469979801467
H        -2.85559300405590   -3.89325301861711   -2.30868353136031
H        -3.32164635178850   -3.87735915478682   -0.61468545432504
H        -3.48876934143820   -2.41376696469710   -1.60384017622300
H        -1.44743437000995   -5.06886090222125    2.52838771429103
H        -2.74632203357156   -4.06315850973707    1.90171609668648
H        -1.69563236224649   -4.95172465029720    0.79365455591850
H         1.31579111135896   -3.53726413765248   -0.42351215173780
H         2.18092306065125   -2.60561008030847    0.80258109592282
H         0.53613087564426   -1.45989820827215   -3.26612136977138
H         1.43014440065339   -2.90945590393668   -2.83935010343767
H         2.99789195031608    0.63941508241528   -1.54319394292769
H         3.96416742469929   -0.82703926588959   -1.40910049803885
H         3.56655873585422   -4.40782648810784   -0.29227528536501
H         3.43749515174593   -3.56863978594957   -1.83061626653988
H         4.29270616274359   -2.82066637674064   -0.47855582188639
H         2.41029701008312   -1.72326913723490   -4.78958068143155
H         2.68552530267643   -0.28036999460983   -3.82260337380285
H         3.57378937452735   -1.76516340436216   -3.47361346464131
H         1.06969961701568    2.21979294204137    2.56815476713137
H         2.22593453242491    2.55677676445929    1.29142660332862
H         1.25419890656774   -1.71754666225655    2.76321741203611
H         1.49992016601299   -0.28277203073269    3.74456371155538
H         3.93007074025139   -0.80008911451019    0.95838753169526
H         3.95333566032845    0.93122500243518    0.62364250507448
H         3.21944411348190    3.09842613981441    3.45052399723813
H         2.91503721774064    1.48727929241826    4.08064627528594
H         4.09028670167080    1.72574153120170    2.78357697989530
H         3.23062763579518   -1.84443008078180    4.31299982908532
H         3.66271014940877   -2.14898955100927    2.64192929498147
H         4.03602065281910   -0.58859819634602    3.38243370681348

