85
CSD_code = VIRMIS | q = 0 | S = 0 | Stoichiometry = C40H36O2OsP2S4 | MND = 6
Os       -0.00001851265560    0.00028459481476    0.00010381931323
P        -1.16924917429303    0.75146382360242   -1.84045523574772
S        -1.79802681674015    0.75639153647513    1.51441838192823
S         0.34776438647775    2.39677507904595    0.53609276273096
O        -1.51099120835905    3.34545802971936    2.07865383274551
C        -2.66513310332787    1.76237767836520   -1.52336660402301
C        -0.35401996431700    1.89207694368878   -3.00922912837374
C        -1.75145618237188   -0.57855977232980   -2.94351109816056
C        -1.05706067853460    2.27132331329632    1.45548209627416
C        -2.45260084070157    3.10368338498124   -1.20206467745073
C        -3.95989067295411    1.25936018358758   -1.48663297322543
C        -2.59863672456409   -1.54616864092316   -2.40265224771707
C         0.97268305044027    2.26616354715060   -2.84861911947591
C        -3.50837331547404    3.91470847710500   -0.83416852500630
C        -1.09684709841448    2.42372393637530   -4.06284683059103
C        -1.26653296125498   -0.74777842475452   -4.23545589104128
C        -0.51078781894449    3.30769638781570   -4.94675840807700
C        -5.01622115042814    2.07796521669398   -1.12567398390679
C         1.55582530978005    3.15456222785474   -3.73644629972257
C         0.81741433787031    3.67376097171209   -4.78514843395007
C        -2.72142684260004    3.21475291454160    2.79827694782002
C        -2.54701076604801   -2.76706551447916   -4.46346448618811
C        -1.66869121519585   -1.83597509083373   -4.99041371575589
C        -4.79460765314362    3.40155163278672   -0.78747907034848
C        -3.00654249016035   -2.62406718321400   -3.16425197960839
H        -1.45167746336921    3.51237412151638   -1.24370884417159
H        -4.15442757198714    0.23187124982491   -1.75186289277711
H        -2.90654766435368   -1.46636631140757   -1.36776879709187
H         1.54656283238951    1.86821185544095   -2.02274726226879
H        -3.32493332767210    4.94867553695506   -0.58009870568467
H        -2.13468301533519    2.13922388688439   -4.18086305249250
H        -0.56791296046528   -0.03481537348738   -4.65022151367324
H        -1.08973380247780    3.71595568213026   -5.76278104264584
H        -6.01864111902881    1.67524028279177   -1.10429328927932
H         2.58823172727701    3.44307289364808   -3.60503446978686
H         1.27234429787361    4.36778814789561   -5.47692032825067
H        -2.91763581703008    4.19097101339074    3.23488634278460
H        -3.53400303738731    2.92540460823156    2.12588477902021
H        -2.62280456946267    2.45813880375874    3.58092601432446
H        -2.85807642929677   -3.61408799403063   -5.05717227149834
H        -1.28706397009790   -1.95924090787793   -5.99390776740619
H        -5.62078684667483    4.03295032647552   -0.49431652415080
H        -3.66725094637005   -3.36447982003983   -2.73785956614232
P         1.16923283563378   -0.75144349996259    1.84049208471293
S         1.79830144604787   -0.75642677725876   -1.51373955467976
S        -0.34795607080840   -2.39656770841255   -0.53620668055712
C         2.66507006748884   -1.76238564063589    1.52326559374711
C         0.35399197017113   -1.89212899105760    3.00919344036253
C         1.75158699955603    0.57844251655712    2.94363330344368
C         1.05673421841184   -2.27110362412505   -1.45578668829112
C         2.45256555473153   -3.10371976846329    1.20203434732442
C         3.95978673502649   -1.25928394377259    1.48627789781630
C        -0.97278807925797   -2.26600550536442    2.84868047560100
C         1.09682606526437   -2.42392504104892    4.06273367881098
C         2.59872576408165    1.54609051037859    2.40277246364578
C         1.26683284316228    0.74751982137708    4.23565246667181
O         1.51086520255525   -3.34531167933642   -2.07867565137784
C         3.50833683434009   -3.91469476703047    0.83400060082989
H         1.45167788895295   -3.51249050052095    1.24387646842740
C         5.01611321160842   -2.07783979867433    1.12518620334300
H         4.15429032018553   -0.23175967781038    1.75139688343830
C        -1.55600143632495   -3.15432344811802    3.73654713698531
H        -1.54667073643781   -1.86790885770938    2.02287737073037
C         0.51068750028942   -3.30779428646545    4.94670275321664
H         2.13471862618882   -2.13960218325704    4.18067006360101
C         3.00662425716316    2.62397415994145    3.16438560306309
H         2.90648203256417    1.46641437972558    1.36783071265795
C         1.66904921888516    1.83565821753720    4.99065046517807
H         0.56834167012840    0.03446904066517    4.65046353021604
C         2.72142636786257   -3.21466756608417   -2.79811679260703
C         4.79453225917231   -3.40146217243706    0.78709571837648
H         3.32492021858895   -4.94868505709225    0.57999628513212
H         6.01850083243709   -1.67504756776267    1.10361819028602
C        -0.81759211031652   -3.67362967806870    4.78520736670648
H        -2.58845975748924   -3.44268593927701    3.60520806307379
H         1.08963506509361   -3.71617353800277    5.76265760469259
C         2.54725378082876    2.76683868757530    4.46366408528977
H         3.66718400664408    3.36448212164160    2.73794131061934
H         1.28762410282195    1.95876626496613    5.99423428063661
H         2.91765311828765   -4.19091779211586   -3.23467253173548
H         3.53396160005224   -2.92526597762149   -2.12567817009155
H         2.62282979714442   -2.45809578885320   -3.58083148669681
H         5.62070063821743   -4.03281917544823    0.49380965142276
H        -1.27256704835748   -4.36761022291826    5.47699549637531
H         2.85844997877739    3.61376719916160    5.05742601835226

