45
CSD_code = VIRNES | q = 0 | S = 0 | Stoichiometry = C21H19I2ReS2 | MND = 9
Re        6.67403579940470   16.11274699679230    7.33963802338337
S         6.13803315887360   14.00772636043464   10.25283966419250
S         9.45013016285683   13.91382200307132    8.18425900228906
I         4.12084389012174   16.53934631884112    8.09171889358256
I         6.01393759677334   14.72464808184238    5.17396522853006
C         6.82711131091801   14.73118427575153    8.88723429406726
C         7.94229631615942   14.69282598444028    8.13904240275003
C         7.44601798582083   12.75073021786346   10.66237724189618
H         7.53283595324132   12.10461537728389    9.79032285745699
H         8.37140510216919   13.30380380422562   10.81735942652687
C         7.03032030407264   11.99654057879104   11.87914395586898
C         6.26410298679128   10.84284324011364   11.76145928534550
H         5.98078018943014   10.48786153700279   10.78143097373950
C         5.86638303828081   10.15095079961517   12.89084652799233
H         5.27413470204008    9.25412382804598   12.78954093626396
C         6.22435301836346   10.60848753849625   14.14784410291633
H         5.91266374250690   10.06851145670025   15.02912215890233
C         6.98057800547392   11.76177227288952   14.27265002741745
H         7.25866844257908   12.12369134095667   15.25110165718217
C         7.37924870009261   12.45463317778250   13.14423654697922
H         7.96644218247744   13.35624193091647   13.24269993614215
C        10.10755740541279   14.21635608532485    6.47677132611955
H         9.32971657592421   14.76002517466684    5.94391511490177
H        10.99868496247494   14.83143160579261    6.59850145547249
C        10.41715133754848   12.91044562044453    5.82496633784727
C         9.43359473314080   12.23245773987687    5.11441584691640
H         8.44528516189816   12.65778261343382    5.01674000936350
C         9.71913896422969   11.01601568196794    4.52153217624460
H         8.95006580027522   10.50137029480177    3.96636011191247
C        10.98345547919927   10.46380681389558    4.64068290435141
H        11.20498572030732    9.51384673996090    4.17801605469373
C        11.96455883882541   11.13135200695393    5.35496450431411
H        12.95167857961034   10.70427756321112    5.45087950272466
C        11.68264953785470   12.34827435011276    5.94794882373462
H        12.44859642327224   12.86827548830051    6.50623139831579
C         8.47431312469571   17.86357681130043    7.93488737362914
H         9.10404796300293   17.78061400034506    8.80627555754724
C         7.13726167846742   18.33729694717598    7.91748201426634
H         6.62406424908851   18.80584363447902    8.74467871922903
C         6.70636865385544   18.36704796299353    6.54860474912479
H         5.81931108340728   18.86837183414981    6.18421828641766
C         7.78718224901190   17.92630044521830    5.74915098875869
H         7.79639210116012   17.87334727167818    4.67224302154785
C         8.85801863285742   17.59397852054122    6.60155911606416
H         9.82619815602234   17.24419767152490    6.28544146306690

