40
CSD_code = VIRPER | q = 0 | S = 0 | Stoichiometry = C16H22OOs | MND = 9
Os        0.96071489952937    0.95805665860176    7.22724894513814
O        -0.86406839362363    3.27968813199164    6.66322370109714
C         0.90262861692260   -1.60067165297795    7.39039049679468
C         2.04862267237056   -1.26178012284747    8.13021076159678
C         2.00318352824869   -0.33630663742320    9.18468437875869
C         0.79875646858875    0.31737531806576    9.46034911465055
C        -0.36683675529148    0.04966035780525    8.68500048195002
C        -0.30132280217659   -0.95122346669856    7.67236465705807
C         0.96036253613953   -2.70928466378266    6.38028755560541
C         3.20920164047417   -0.11875951128363   10.05121131638746
C        -1.70678337058119    0.56355185723765    9.14306083619505
C         2.15160993400458    1.03795929872886    5.45988504070938
C         2.79343852394157    1.76842309738141    6.50877091187517
C         3.12012103279131    3.24243132978182    6.36453329717562
C         2.36116942009801    3.89808788986609    5.21557110963591
C         2.48117871594083    3.03957106895925    3.96321242473824
C         1.72613097199147    1.72779288133318    4.16919029029753
C        -0.11919037113459    2.39915265566541    6.85740096898954
H         2.50658239286622    0.01395706638713    5.29052101289663
H         3.57950170296546    1.23968735997536    7.06447469152329
H         2.97339075762870   -1.79396587934431    7.93739510077589
H         0.72167148681521    0.96027276583249   10.32912819844677
H        -1.21373213214589   -1.26959601991862    7.18231081168590
H         0.18831481743803   -2.58851282378654    5.62320574482784
H         1.93127442930205   -2.74403766926217    5.88820165724490
H         0.80334056051666   -3.66871895179008    6.87747154239063
H         4.13020874644336   -0.27242581720329    9.49092527662108
H         3.21549794871871    0.88692098821827   10.46670830105267
H         3.19915032243474   -0.82889262265549   10.88056443044187
H        -1.60591021590145    1.53837495057742    9.61560105965532
H        -2.39186364344474    0.65831006597560    8.30302245585640
H        -2.14425124234782   -0.12661066395332    9.86732204230260
H         4.19642355849810    3.33302626258575    6.17667026341671
H         2.90944085196834    3.76808632100852    7.29932476774915
H         2.76711499119067    4.89504405403665    5.03469100712896
H         1.30969895357428    3.99436243495923    5.48286387533623
H         3.53541850400531    2.83230944722406    3.76473807583691
H         2.07114997912074    3.56563422660905    3.09987632356088
H         0.65403084435528    1.94188962862754    4.19392491113969
H         1.90722911776392    1.05956038549270    3.32456216145589

