102
CSD_code = VIRQIW | q = 1 | S = 0 | Stoichiometry = C49H45ClCoN4P2(1+) | MND = 5
Co       11.30020916497937    6.40193793754879   12.72518539234172
Cl       11.07834958687036    8.55000455496808   12.17272389940158
P        13.53031451561562    6.28185595784216   10.58285330756407
P         8.38799854505694    6.09327144297141   11.77359013293900
N        10.88762038653037    6.13171280102999   10.85554419965835
N        13.23281176509393    6.26975754047065   12.16186626727014
N         9.35311761611350    6.10144692210500   13.05878947838273
N        11.72316218806962    6.15103926945714   14.25526873270380
C        11.84567701845244    6.21748454373276    9.92020823624989
C        11.57121029290868    6.31378322221374    8.56471817448258
H        12.39191922474457    6.39682538292948    7.86686315372343
C        10.25073653709116    6.31517716814711    8.13910237764217
H        10.00502718350210    6.38883795469264    7.09146324676149
C         9.25548363949482    6.23636539147912    9.10261711197012
H         8.20800601759781    6.25844192981938    8.83848245736246
C         9.61179623530610    6.14109884702523   10.43891919563425
C        14.31663864246972    7.72457092509274    9.79248660096888
C        15.40666876404778    7.58223478030630    8.93921314503002
H        15.82426944865555    6.60503086418376    8.74471003902977
C        15.95445977509174    8.70225582105984    8.33870900398074
H        16.80421595408168    8.59370592242715    7.68215181178858
C        15.41638587515938    9.95644537275240    8.57888162972235
H        15.85078738236594   10.82592397071868    8.11004667889605
C        14.32087520313333   10.09549672869765    9.41752699461188
H        13.89766221204768   11.07079443459627    9.60148245868277
C        13.76697175475258    8.98390525325698   10.02439364758637
H        12.91456444827187    9.08637740896727   10.68148412223777
C        14.46765079749382    4.81800089667317   10.07138403824856
C        13.89982346324747    3.76609069036963    9.36317712024371
H        12.88026691361483    3.83729136281427    9.00864972749653
C        14.64968916499028    2.63115618229324    9.10902724395654
H        14.21571617602194    1.81538941438337    8.55111177297439
C        15.95183835062175    2.53833543917377    9.57459465143803
H        16.52951686498285    1.64839632201160    9.37817711735953
C        16.51400994406212    3.58237846140782   10.29335200517076
H        17.52601603336877    3.50671252124161   10.65977431528244
C        15.77541689136838    4.72398945711148   10.54351522896842
H        16.20322185871543    5.54514603085481   11.10352717080639
C         7.22739470017325    7.45737992478029   11.42561592355852
C         7.73490478341103    8.75281370166079   11.34122836279601
H         8.78779804541789    8.93141796883329   11.51063660723179
C         6.88531683881470    9.80388229455422   11.05143311897764
H         7.27861581700352   10.80685403769693   10.99128798990351
C         5.53454315974193    9.56978672988609   10.84272758267605
H         4.87193083864409   10.39250176858343   10.62236723074779
C         5.03284964256248    8.27999485955343   10.91372265062552
H         3.98246963285151    8.09673913271755   10.74603709987614
C         5.87469696564491    7.21965701196565   11.20016982707053
H         5.48117256801295    6.21464815661549   11.24656030682142
C         7.43856097021435    4.55148296504008   11.70420231272906
C         7.71030930039859    3.54072819151122   10.79018368455451
H         8.45220778538163    3.69196186846373   10.01784613888377
C         7.02091618033054    2.34335243934888   10.87100083134574
H         7.22236787186419    1.55908610656248   10.15728851839579
C         6.07931385753528    2.14801656330841   11.86909954969933
H         5.54921249404876    1.21029159109585   11.93063420243185
C         5.81831874088843    3.15113526427896   12.79025803778747
H         5.08910994735479    2.99555431534193   13.57003479439479
C         6.49524922282663    4.35409929126358   12.71115195976747
H         6.30167219145434    5.14237235726350   13.42655748665505
C        14.29781711331490    5.94785765071123   13.05697718268341
C        14.49208299710918    4.61811575701687   13.45029055657149
C        15.51228948652666    4.32573110777993   14.34255151589479
H        15.65908634207491    3.29824249843810   14.64181048241258
C        16.32980964913012    5.31433481434951   14.86837443290280
C        16.10261654096566    6.62912185436749   14.48354446928541
H        16.71559667332082    7.41539300115795   14.89877213701284
C        15.09856811874751    6.96479552630607   13.59101174932311
C        13.61647064251327    3.49888906181468   12.96820428230581
H        12.85048337141015    3.85076321264199   12.27761482596862
H        13.12360306598737    3.03220698516266   13.82005729894119
H        14.21312686633214    2.73792238855605   12.46626922132130
C        17.39781811604201    4.98381194259713   15.86074932955921
H        17.72752208767870    3.95392780514083   15.75233331356250
H        17.00613303399499    5.10929558727747   16.87012906981492
H        18.25177830173190    5.64724138906212   15.74901451301642
C        14.87068876879647    8.39589694079939   13.21738853579358
H        15.31593732470660    9.05489305837265   13.95754048828470
H        13.80616986013076    8.61170405474510   13.15252954867645
H        15.32268146749822    8.61776783021105   12.24912503349237
C         8.82154935140710    5.74637314662258   14.33465388442637
C         8.21845394868476    6.71495623532182   15.14564186627475
C         7.72376390167169    6.33958987833075   16.38457158168449
H         7.25720478056820    7.08884078399183   17.00721475182609
C         7.82460630983965    5.03520091312854   16.84754250197521
C         8.45221890473120    4.09804213964487   16.03924803008896
H         8.55724826723243    3.08129575897204   16.38891502802476
C         8.95973923425864    4.42954087520457   14.79297149028454
C         8.10568558954557    8.13702295439950   14.69294863017238
H         8.00276224365364    8.79825500992759   15.54910907101601
H         7.22804817406464    8.26986465700696   14.05759398375435
H         8.98513166238116    8.43459676759657   14.12589283169912
C         7.26837482517937    4.64858976909698   18.18099095321807
H         7.27401273713894    5.49463313442690   18.86304367003931
H         7.84204942071562    3.83592430445161   18.61893747847584
H         6.23715025677610    4.31166462118466   18.07077570581452
C         9.64471543486833    3.37069164512811   13.97965203403686
H        10.29942955650684    3.80908928619212   13.22555447737879
H         8.91095907576454    2.74077436485099   13.47524684075267
H        10.24078130012375    2.73487980310299   14.63048899291583
C        12.20884225434519    6.12075079750077   15.37386884502345
C        12.75935555196901    6.03528502022782   16.53353325878947

