46
CSD_code = VIRRAS | q = 0 | S = 0 | Stoichiometry = C20H20BrCuN4 | MND = 3
Br        2.74532653170819    5.65282007611956    7.80889803901654
Cu        4.80496191138136    5.83145229702904    6.94781267842381
C         5.20135283696907    3.08340722539660    7.70421019966633
N         5.86699879963418    3.95076030590080    6.99679587140936
N         4.10596238619194    2.47390052376438    7.22235519111431
N         6.54425461286722    6.51982288420681    6.52124618581411
C         6.85527949102270    7.76617480276247    6.22422283230148
H         6.03142349142801    8.44613687491391    6.05580943458598
C         8.17602319866295    8.21389000577034    6.12277741381487
H         8.36645725605934    9.24616358023157    5.87458023937080
C         9.20101519090994    7.33078539552937    6.33840041980601
H        10.23330880505199    7.64140119928754    6.26722886416376
C         8.90643180296958    5.98722903606603    6.65796612931550
C         9.89549437250081    5.02313543494725    6.90690734462253
H        10.93259887337226    5.32084279226682    6.87243849035952
C         9.54961024719502    3.72436632920440    7.22320272947653
C         8.19886737664547    3.35972932638298    7.29207146169981
H         7.93007340298512    2.33473387405216    7.50450709932975
C         7.18538395785731    4.27685678471399    7.05795397816542
C         7.53826917605625    5.62236341197400    6.73502159013637
C         6.14864448301203    3.49054122536671    9.94950776884290
H         5.55086872535759    4.33425111546247   10.31448914147131
H         7.05815216850278    3.87306856573271    9.49151153149253
H         6.41859728848320    2.85863667884724   10.79560746329979
C         3.54780074875321    2.67903994315640    5.91746986363580
H         2.62896531953917    3.26759404874280    5.98379353777518
H         3.32256472694272    1.71423685903400    5.45782109365723
H         4.27557365756186    3.21158936716602    5.30896810447336
C         4.23041286003133    2.00241598876902    9.50073872571732
H         3.73954655094350    2.60398630715089   10.27272607965820
H         4.52563236948917    1.04312591581574    9.93628119148052
C         3.33515169304723    1.83858707752209    8.26605050078305
H         3.15467962487944    0.78844651964427    8.01558853787358
H         2.37281652471869    2.34917653312043    8.38266683987331
C        10.58742529187496    2.71894077337152    7.49824154848430
C        11.73654903552141    2.65258723747564    6.71430876451986
H        11.85313717686178    3.33270486119342    5.88305981511833
C        12.71249159457551    1.70906132479086    6.97545011659068
H        13.59611245282144    1.66515396900560    6.35548749278368
C        12.55939857426143    0.82143779053860    8.02729769455859
H        13.32350411683169    0.08643847158859    8.23252083001686
C        11.42179088686274    0.88040703168224    8.81463918550566
H        11.29868993958364    0.19256668237768    9.63865710772220
C        10.44152465250887    1.81877262210580    8.55093716082713
H         9.56317687659392    1.86946653595608    9.17851177604924
N         5.41119893897522    2.69479439385540    9.00076193521106

