79
CSD_code = VIRWUP | q = 0 | S = 0 | Stoichiometry = C26H48Cl2FeP2 | MND = 4
Fe       -0.73987217441367    9.58634623714714    5.31835125616814
Cl       -1.21186253963845   10.96028984205898    3.82796345550328
Cl        0.15381750980029   10.46816086992750    6.87139464524056
P        -2.26783575840617    8.14596598617642    4.81237320412628
P         0.74058216606697    8.03930969168452    4.94253631415917
C        -1.53749529420703    6.50971312318052    4.28310699342939
H        -2.13637123579970    5.69054496967211    4.68872126419776
H        -1.62750679747283    6.47451223448710    3.19587555653592
C        -0.07176061545505    6.37694710905753    4.69270297660657
H         0.49684882291451    5.79965800509906    3.95823616962775
H         0.00010418479226    5.86134411418426    5.65314796974459
C        -3.18241783577483    7.73889694783586    6.39667533573603
H        -3.61756671797018    8.69853674782416    6.70857606947127
C        -2.16904848231620    7.32474590299915    7.46374142447556
H        -1.37680241286475    8.07756469729048    7.52260790278040
H        -1.71315850749882    6.37247926998921    7.18404158289904
C        -2.84621031922027    7.17065045234622    8.82154179302781
H        -2.11071694418408    6.86560678233412    9.56861146311814
H        -3.25895946855018    8.13253787393166    9.13269209978004
C        -3.96741706493213    6.13962801671148    8.73703040335658
H        -3.54511797278772    5.16324128834439    8.48640208615942
H        -4.46684706597320    6.04861565898874    9.70348138059038
C        -4.97624782462160    6.54485213131534    7.66732928406290
H        -5.43849845722921    7.49382723577705    7.94874995448539
H        -5.76815224791521    5.79581287340348    7.59786027049562
C        -4.29830708705809    6.69887082033479    6.30547705760997
H        -3.88649807987566    5.73304302996193    6.00402916077937
H        -5.04695379593748    6.99202390152611    5.56887769514268
C        -3.65722876610800    8.32124727045204    3.57921679583833
H        -4.21748147780076    7.37582859901668    3.56271226104499
C        -4.56830344331625    9.47173760013378    4.01181323845081
H        -3.96952026135732   10.38520446242415    4.05518631766836
H        -4.98064023168715    9.28731780620150    5.00611933545309
C        -5.71546327140245    9.66169084761028    3.02294618204564
H        -6.33655254470126    8.76130997890450    3.01012155720785
H        -6.34283385015591   10.49499173937063    3.34582639735872
C        -5.17623099541301    9.92548208879548    1.62210975263570
H        -6.00271789359698   10.04264166262766    0.91799991571908
H        -4.59940826644048   10.85193990893691    1.62698342016403
C        -4.27313680161039    8.77711456560019    1.18799529344230
H        -3.87273519316063    8.97317055551823    0.19153052333902
H        -4.85574273067375    7.85259781373224    1.13945495743321
C        -3.12137302583419    8.60807984248804    2.17544555313410
H        -2.53509421686298    9.52743785440597    2.20611864593743
H        -2.47198189095255    7.79994877565738    1.83282688282304
C         1.65065580150886    8.33780277254229    3.34385461824494
H         2.41213430574832    7.56049147763025    3.20487341118448
C         0.67959705748577    8.30608677048925    2.16584285816755
H        -0.12367820292157    9.02123835002514    2.35565896380328
H         0.24064176603977    7.31095875026573    2.06702109034924
C         1.38897339614304    8.67421799372500    0.86551822745751
H         2.16452431723316    7.93394902978929    0.64821668655854
H         0.67142478914472    8.65903441994319    0.04274117738391
C         2.02316066670474   10.05529457442263    0.98034258736044
H         1.24119667320939   10.79318791078912    1.16684217724461
H         2.52490614515515   10.31751090808994    0.04668069813432
C         3.01805881811505   10.07538668607358    2.13511621043259
H         3.46848095098972   11.06566626746445    2.22500035976177
H         3.82072980311756    9.35857248198466    1.93946018733696
C         2.31519723854144    9.71213325449373    3.43864094860122
H         3.03218520256354    9.73114586444547    4.26282687652600
H         1.54092655509840   10.45560334466215    3.64913355992929
C         2.14341374626295    7.59123148429144    6.09909311204510
H         2.77868302362985    8.48790327924018    6.11295277419844
C         2.99266564767833    6.38987087373672    5.68004151114998
H         2.38257351267196    5.48446280754101    5.68331579842043
H         3.39286897008859    6.52467358853567    4.67435240601861
C         4.15540754882300    6.20712363773111    6.65484460529368
H         4.79554484323674    7.09176724604547    6.62406784819935
H         4.75701463475962    5.34807844806612    6.34902146807533
C         3.64161986719236    6.00507978725262    8.07624973221946
H         3.04827379341346    5.08835314634241    8.12064293872475
H         4.48220337361822    5.89211364191807    8.76367141599978
C         2.77772423576229    7.18968396579872    8.49591213664545
H         3.38626668804716    8.09628437052373    8.51236027472508
H         2.38802383271530    7.03109863447203    9.50346638350675
C         1.61898689716634    7.37896567959706    7.52071796403709
H         1.02565529709491    8.24318824917509    7.82259734209489
H         0.97767568150923    6.49477311739948    7.55647985116788

