67
CSD_code = VIRXAW | q = 0 | S = 0 | Stoichiometry = C30H28N4P2PtS2 | MND = 4
C         2.22909396622042    6.55142629675879    6.96039985109547
C         4.17562369415154    5.42962343715825    6.37539407122200
H         4.39089122397380    4.72586126503270    5.56706870036848
H         4.77582650645691    5.14848571021199    7.25432391427235
C         4.53598248041118    6.84989301299021    5.93215349889308
H         4.42855098325235    6.98061682152093    4.85461388218155
H         5.53697738947824    7.14462626587751    6.23642415203452
C        -0.69583391817380    5.61740181570979    9.13358870834954
C        -1.94283386464227    5.07751819933670    9.42484736451944
H        -2.53252208641780    4.63796393869129    8.63394645485211
C        -2.43176325364950    5.11803951349768   10.71659715885836
H        -3.40250399664274    4.69882966064314   10.93770792948924
C        -1.67661875762124    5.69107198138327   11.72728730427297
H        -2.05899668963524    5.71646052871641   12.73708409864233
C        -0.43496833353945    6.23509557056821   11.44185959773536
H         0.15050357771741    6.68824814277707   12.22864663334429
C         0.05696897123516    6.19451466312346   10.15056384652128
H         1.02031873253251    6.62074346229837    9.90838748038280
C        -1.25229234196551    5.64727242486123    6.25812698551946
C        -2.36802604448512    6.45546532341529    6.42560049837138
H        -2.49596961724952    7.00719773692076    7.34611696475218
C        -3.30232015289427    6.54629481912472    5.40829496184842
H        -4.17618546412208    7.16882390713324    5.53558189550598
C        -3.12063467780425    5.84395007278062    4.22775600028338
H        -3.85724886200577    5.91453952211373    3.44095356649766
C        -1.99387480021895    5.05622359061459    4.04917356502692
H        -1.85055409880022    4.51540655495667    3.12543132333683
C        -1.06159867082007    4.96020803599318    5.06350157400093
H        -0.16747670005513    4.34211547078215    4.95185431281461
C         2.12365063392782    0.93315878577365    6.64262099237609
C         4.11193006528157    2.03917561244022    6.18241480262959
H         4.69731581309606    2.75105718603430    6.77007536919948
H         4.20727263970732    2.30173846327246    5.11770993330074
C         4.63811594225239    0.62103134294698    6.41881269943048
H         5.07287269145552    0.50762703667855    7.41272942234294
H         5.35996890305509    0.30933696165485    5.66830057980369
C        -1.50260844786696    1.84297508186085    6.15670542552970
C        -1.41207982349003    1.08853456817233    4.99285042917003
H        -0.49233114658477    0.56141209743560    4.78331190703311
C        -2.49466173208933    1.00551691119357    4.13612716262778
H        -2.42441159593760    0.41522342582361    3.23405618428669
C        -3.66681607432281    1.68207548426856    4.43171215603434
H        -4.50972228862043    1.62242091222986    3.75892774499177
C        -3.76128284683008    2.43404621905430    5.59236255484617
H        -4.67641965688839    2.95905371317351    5.82463852898339
C        -2.68193003273570    2.51772183952599    6.45028153464837
H        -2.74647331332733    3.09949915980861    7.35767602693150
C        -0.57067336375147    1.92248935302570    8.92232363721742
C        -1.68535094138025    1.21571517509018    9.34972427571105
H        -2.30116924710917    0.69776316451700    8.62819696704005
C        -1.99529162754197    1.18202116665206   10.69862425736876
H        -2.86594712350413    0.63837882326613   11.03588994303120
C        -1.19377671376720    1.84026496450101   11.61676543220504
H        -1.44488816327138    1.81416372086749   12.66689704322927
C        -0.06696591725138    2.52876287970484   11.19391911189009
H         0.55959068504020    3.03646314084546   11.91220244442433
C         0.24169646260535    2.56930278682298    9.84889459871816
H         1.11908803680389    3.11213320569939    9.48680605337776
N         1.00325419270845    6.81072073318510    7.34771232840343
N         2.77185847061285    5.38018494866396    6.71667827112573
N         0.86264898789688    0.68327945397175    6.90352714268615
N         2.72060784697666    2.10084719946763    6.56923979840048
P         0.06536772329974    5.47275203932453    7.49428147908925
P        -0.02742544727365    2.02998130120723    7.19222837322405
Pt        1.43382473042402    3.74631575136099    6.97057196039268
S         3.31194542372171    7.92747435188773    6.74621181750387
S         3.16850105998154   -0.45313670639608    6.33060531579629

