75
CSD_code = VIRXIE | q = 0 | S = 0 | Stoichiometry = C38H28N4P2PtS2 | MND = 4
C         8.61085063771695    4.12660110770532    3.05240235019898
C         9.54859122142443    2.29851055697279    3.97382370870790
C         8.29805105105974    1.75164565636797    3.63956976144659
C         7.96993486693407    0.44849925361936    3.95679809554003
H         7.00837500158432    0.04635688267788    3.67982814458477
C         8.89750054383151   -0.31198236525632    4.64792506466727
H         8.66210361771451   -1.33328654100894    4.90500045009063
C        10.11352185563452    0.23600566595419    5.03814636941254
H        10.80961876332259   -0.36099730201231    5.60786806921084
C        10.44582208000175    1.53614214404713    4.71497433322600
H        11.37644039434559    1.97347373036602    5.04347154375142
C         9.77871303189712    7.62667502229007    1.93499266259633
C         9.59387666936906    7.24903634717770    0.60966345440543
H         9.28425591788226    6.23581332284623    0.39469114379733
C         9.79018874492970    8.16749259079185   -0.40449802455022
H         9.64236384651253    7.87639346671951   -1.43418952540132
C        10.18105190350870    9.46138079626211   -0.09968074338485
H        10.34241558374716   10.17747046014254   -0.89188422521489
C        10.35897883158236    9.84175177637452    1.22109307430548
H        10.65357430346135   10.85447777570933    1.45571757460248
C        10.16129957231049    8.92763358256168    2.23921759001611
H        10.28753341871129    9.21653313270278    3.27305997239361
C         9.15794686073186    7.18105932528819    4.74563633300765
C         8.17760188233192    8.16357733966063    4.78974964387625
H         7.69479887865914    8.47517005408337    3.87415505274308
C         7.83232694680438    8.72638255157865    6.00548676304134
H         7.07408030235655    9.49471058926021    6.04696118349555
C         8.45590574218929    8.30711297194513    7.17049653526136
H         8.18587176900159    8.75516326509055    8.11540027221166
C         9.41735513342545    7.30960991589228    7.12997864386859
H         9.89385751638975    6.97772288612086    8.04040602232672
C         9.76457086680356    6.74454039684066    5.91795083830076
H        10.51803322500331    5.95633336633730    5.85829854978802
N         8.42049720855417    5.38714433895473    2.73016954807408
S         7.30403022331375    2.97161931001291    2.86361774695333
N         9.72218180200075    3.59377073444894    3.56010710104600
P         9.66446309754479    6.35296753044766    3.21020672746903
Pt       11.38189682461695    4.92971371322696    3.56939907438251
C        14.15308534237126    4.12680830538689    4.08592527573532
C        13.21539256904076    2.29881916599613    3.16426329472931
C        14.46596542067074    1.75194565038887    3.49838232355389
C        14.79408068250830    0.44883918425180    3.18098466752012
H        15.75566162353752    0.04666657446636    3.45783906973501
C        13.86648756758334   -0.31157203937998    2.48981136195150
H        14.10187458810802   -1.33285028463288    2.23262560419108
C        12.65045305670114    0.23645296086385    2.09968261175947
H        11.95433451085057   -0.36049433793514    1.52992849345032
C        12.31815367063321    1.53654561638085    2.42302523184380
H        11.38752686606171    1.97392533339009    2.09461685852754
C        12.98534987967473    7.62694261276891    5.20351728598175
C        13.16998440354861    7.24929630444964    6.52887662597974
H        13.47920374316750    6.23596150014707    6.74391175692926
C        12.97395825658327    8.16786100575978    7.54299187237827
H        13.12168420440169    7.87676492613496    8.57270031429147
C        12.58358719733014    9.46188185557403    7.23810673450991
H        12.42257372844107   10.17810111808451    8.03026659953957
C        12.40584576567715    9.84225460974265    5.91731150829226
H        12.11168507783065   10.85509350039376    5.68262273664241
C        12.60322524733207    8.92802215565646    4.89923198036953
H        12.47707879985907    9.21692857130391    3.86538023508798
C        13.60569508521666    7.18099641355049    2.39278734554703
C        14.58601181625806    8.16354055512421    2.34839465954243
H        15.06870821002667    8.47552235854359    3.26390212499880
C        14.93122898013326    8.72605619576270    1.13249838418964
H        15.68913873086138    9.49469586196024    1.09085969514299
C        14.30758055013488    8.30652811779459   -0.03238474811061
H        14.57743407900778    8.75446020697585   -0.97737919676525
C        13.34609397826787    7.30905529375887    0.00842524562728
H        12.86977323896433    6.97674425765578   -0.90192605412548
C        12.99899843420450    6.74422478405961    1.22060218933250
H        12.24581485811388    5.95576534711161    1.28042151018003
N        14.34337054267046    5.38731894808563    4.40834698541845
S        15.45998252797470    2.97186431917218    4.27443456333675
N        13.04176184711083    3.59399525676321    3.57820390247656
P        13.09933478236936    6.35311244224494    3.92840006999585

