95
CSD_code = VIRYUR | q = 0 | S = 0 | Stoichiometry = C44H40Br2N4NiO4 | MND = 4
Ni        9.52011350734103    3.60026808065147   12.31173236260346
Br        9.51193647561704    5.90818788849876   12.88964099408414
Br        9.25513644058189    2.29787920958338   10.34914079837075
C        10.27904490224359    3.38655527599042   15.50656793398966
C         9.25841110124344    4.15088320358776   16.06065613932058
H         8.44126126399136    4.50879567868097   15.45601943450149
C         9.35455785045213    4.45522898292981   17.40131893336349
H         8.59097833542017    5.06528010960201   17.86080826157700
C        10.42435580936862    4.01064084017128   18.18274395528492
H        10.45294518049164    4.27237521640412   19.23050113182269
C        11.45339128926489    3.26528559155388   17.64470418990097
H        12.29198963277483    2.94429235210477   18.24314450999059
C        11.37002314826754    2.96725182490487   16.29393098484741
N        12.21658884906099    2.29315574446792   15.44504371043141
C        11.63730395727074    2.33663680745410   14.21060215466222
N        10.48074004915338    2.95917205680467   14.21948276466366
C        13.57007931602915    1.94562016975677   15.78653874711040
H        14.04271292800758    1.46603618456751   14.92473869997609
H        13.56763355233586    1.23485806085666   16.61903329544703
C        14.37020451106027    3.16770354027324   16.17864914408034
C        14.13385993036272    4.39935867514084   15.59354968118076
H        13.36137935383127    4.49806341971836   14.84556931033640
C        14.86868342243435    5.51395490864771   15.96052342200643
H        14.66537951990980    6.46772878647396   15.49992471088320
C        15.85477691908529    5.39180470044762   16.91952450641961
H        16.43389276773850    6.25301706002688   17.21653136779940
C        16.11307279979135    4.16610660220681   17.51128037446647
H        16.88973371705061    4.09588939136885   18.25600310743928
C        15.37625553114712    3.04656463551607   17.14753065885553
O        15.55371132083430    1.79702522733292   17.67445347200350
C        16.54497699603939    1.61691903369116   18.65694223335556
H        16.50231262387252    0.56264037243876   18.92615585490452
H        16.34807804688089    2.22536080572062   19.54530439379435
H        17.54148561800712    1.84959506958603   18.26896716512974
C        12.22340510101898    1.75537687428336   13.00975813066023
C        12.78441607311759    0.48232718416006   13.03166816367593
H        12.74917707457056   -0.09092710645237   13.94664761481211
C        13.34607776132446   -0.06355775769278   11.89366384121022
H        13.77241519863537   -1.05437887523741   11.92332777941843
C        13.34608602023803    0.66456458746022   10.71699122645809
H        13.77636265051901    0.24640285745871    9.82018824654668
C        12.77604294651334    1.92336679314174   10.66718678706816
H        12.75046131835660    2.44972748402014    9.72764968336328
C        12.19370566923754    2.47779150842968   11.80149199828293
O        11.59738971461719    3.70871949057306   11.81489152071933
C        11.93506535271416    4.59885563224692   10.76060689654658
H        11.56459670652142    5.57988504739748   11.06071219802546
H        11.46011476008659    4.30788424502288    9.81849452958656
H        13.02035827330497    4.64106720763470   10.63460029246738
C         6.71504774832772    4.03198995253521   12.11860319870386
C         6.72185018165067    5.01367198800668   11.13343112779762
H         7.64945063364997    5.36266031212918   10.70402059529913
C         5.50379741231079    5.51190607517940   10.72837821270213
H         5.47138259322887    6.27435630795398    9.96563975606616
C         4.30627979717959    5.05298107595108   11.28132019145008
H         3.37377359130799    5.47700618268954   10.94017877705627
C         4.28218144861677    4.06442284375385   12.24330688185761
H         3.35287920724617    3.70276961580070   12.65358117938182
C         5.50438433647490    3.54632637245967   12.64869063430439
N         5.84848203203419    2.55256928121111   13.53301838595086
C         7.19833615641479    2.45342701599429   13.52201299728746
N         7.74676494150831    3.33947842979671   12.70748929037418
C         4.93225540020235    1.64280782375300   14.17495630426115
H         4.45424677356349    2.14431205967270   15.02345288274788
H         5.51902828507943    0.79931533084202   14.55191358471251
C         3.88173081097249    1.13655661308661   13.21916425973818
C         2.54130770902565    1.16414888672626   13.56123097942298
H         2.25355851029050    1.55394046971404   14.52746955621766
C         1.57083761563442    0.70711435584945   12.68543832282763
H         0.52982832863713    0.73551101809126   12.96723450094243
C         1.94995694272022    0.22411319117751   11.44743988557926
H         1.20381769726189   -0.12756809302691   10.75088819722655
C         3.28522427714403    0.18418684638675   11.08595114020104
H         3.55801733349758   -0.20046210537700   10.11656856455230
C         4.26545928010111    0.63046379035904   11.96599034481262
O         5.59677517051343    0.61667031697522   11.70748564947112
C         6.03633898411774    0.25937611175981   10.41549294573936
H         7.10910520270149    0.44213612501824   10.40221214112909
H         5.56680633187903    0.88247286927877    9.65031599208763
H         5.84155315653525   -0.79636480834192   10.20531974332856
C         7.94326135130899    1.46339948218667   14.30169771042547
C         8.81344768159732    0.59250566553960   13.65903411402549
H         8.88650041981347    0.61478418208599   12.58278214694046
C         9.57185763922403   -0.30859197705211   14.38413532035545
H        10.23869809543425   -0.98342167427982   13.87028335384050
C         9.47385714287855   -0.32738644160984   15.76283458732127
H        10.07653190140124   -1.01164612858299   16.34230406302565
C         8.59819262071991    0.52050510605194   16.42090128612446
H         8.53931977437857    0.48487601770943   17.49698715843029
C         7.81558102512866    1.41449840641813   15.70164118843345
O         6.91856521394306    2.27629051470676   16.25464276556470
C         6.75783634551047    2.28081987717854   17.65285624768951
H         6.01208788630560    3.04720092258799   17.85769042120367
H         7.69072686812815    2.54118750565885   18.16144138079611
H         6.39419685650558    1.31404160642442   18.01653471911014

