53
CSD_code = VISBUV | q = 1 | S = 0 | Stoichiometry = C24H21N4O3Zn(1+) | MND = 6
Zn        7.66865617748692    0.86605387570932    8.78225899308620
C        10.37476133412279    1.53830155164649    9.82555208801131
C         8.71298753884643    2.43809547985073   11.14386526060663
C         7.32689287721086    2.69694053988601   11.31166407975151
C         9.64178843070432    2.89929568473196   12.11160273744889
C         7.81433973646579    3.76494789140648   13.41338667681621
H         7.44430809660198    4.27130219755806   14.29105216033213
C         6.89112285649467    3.34184162190223   12.44608576813246
H         5.84169765837671    3.54286414512810   12.59315048635484
C         9.15977806054582    3.56618388317781   13.25462229211724
H         9.86305082919645    3.91450372000862   13.99414373348849
C        11.37034177169525    1.99450527994465   10.70721336974078
H        12.40753082970265    1.80701167621884   10.47808540787117
C        11.00596818432162    2.65175143124702   11.85233010653879
H        11.74935744197937    2.99121206053139   12.55761237656904
O         6.56063359611535    2.29284133426764   10.27422671272057
N         9.09777556502129    1.74395828854887   10.05184101390272
O         3.72358181752124    0.41021115660994    9.40084055250435
C         4.87529302151773    0.74166778196955    9.53366017867674
C         5.20006933820366    1.95327962012757   10.47740792085020
H         4.54528037682452    2.79423221461735   10.22980792806765
H         5.01205462399204    1.63493875676171   11.50657648196523
O         5.89397554941721    0.20147242063515    8.98693722206314
N         7.27119258226588    2.00483233195750    7.07866079774354
C         8.29920837545909    2.40754472968645    6.33196187367194
C         6.03411212486060    2.29766978550242    6.68623267860859
H         5.23387453432010    1.92913504007736    7.30955159884535
C         9.67533133385934    2.06371405502437    6.83746352805962
H        10.38377570369701    2.00345796183301    5.99912001664279
H         9.99882927751800    2.87721178386421    7.49484598945298
N         8.24816831147377   -1.16315125273505    8.63516540309267
N         9.64459511966667    0.83530898962085    7.61442474875860
C         5.76800814369155    3.01770615007821    5.53476271921710
H         4.74927306670308    3.23066274166737    5.25570453109941
C         8.11900508984554    3.13211866183102    5.16202152498644
H         8.97412869328662    3.44195423561129    4.58167460997254
C         6.83201473771130    3.44731938216654    4.75685135155537
H         6.66553159737362    4.00938527852567    3.85110837202937
C         8.98538994767920   -1.49703247495212    7.57798227280831
C         9.18842659957004   -2.81930411456332    7.20842898871963
H         9.79104899595953   -3.05329391822638    6.34465388831547
C         7.68117602733721   -2.12441498333300    9.35716656707805
H         7.08120517604515   -1.79902447864072   10.19295703605748
C         8.59543678214730   -3.82232036396111    7.95767220801219
H         8.72875191582387   -4.85830481001342    7.68748945732402
C         7.82892483892752   -3.46683592498297    9.05720776187393
H         7.34831976208039   -4.21426682773366    9.66658937739883
C         9.57032079658025   -0.35700264242115    6.78549188158391
H        10.55171362221601   -0.63797091878713    6.37667543951990
H         8.90050921980914   -0.15466756791962    5.94376639568004
C        10.72752305742913    0.76520322225524    8.58447796602862
H        11.67645752437523    1.13071946986878    8.16808633036736
H        10.87310132992298   -0.28006615378684    8.87398113787846

