85
CSD_code = VISBIL | q = 0 | S = 0 | Stoichiometry = C31H49N2NiOP | MND = 3
Ni        1.95826789657862    5.30432557932585    3.15350342624573
P         3.79690939009475    6.40966646173371    2.97051303672177
O         0.81883402122612    6.71215483435622    3.13392152788641
N         4.94014682756524    5.22111904980287    2.95526024356393
N         3.12671781954518    3.80244432909068    3.09146276864477
C         4.43481261598587    4.00388942163384    3.03787570689600
C        -0.26334469314973    6.39112043427519    3.93888869892674
C        -0.27434181457291    7.27735243333144    5.20158227049821
H        -1.17138805142363    7.09937550321860    5.79009394732013
H         0.60014863214012    7.07078432116356    5.81562570814151
H        -0.24716861500671    8.32344418212692    4.90679432580160
C        -1.56320633146109    6.63071206852492    3.14834077455816
H        -2.42888076950765    6.34433455620892    3.74059828744359
H        -1.63900926637836    7.68275173513927    2.88682369946234
H        -1.54923678409122    6.05092993774347    2.22807748045520
C        -0.20388949697870    4.90121841986940    4.37331722182244
H        -0.87452266686050    4.72197885092733    5.21164033063475
H        -0.50031742377697    4.23995044273828    3.55798410581652
H         0.81941463624412    4.64197583048657    4.71117703969681
C         4.03928845656224    7.32160127673129    1.34467660854024
C         3.70880473121729    6.24827634434359    0.30662199972032
H         4.41580529231152    5.42296431179309    0.37714797182386
H         2.70025093672453    5.87170659604392    0.49381863095266
H         3.74996823943810    6.65808910880346   -0.70146752883620
C         3.03406317761405    8.46058678658174    1.21929283413614
H         3.33470763440631    9.32438139340488    1.80461942359730
H         2.95085964802222    8.77219947309651    0.17880108364431
H         2.05854312879989    8.12344806040204    1.56682695112576
C         5.48013624580586    7.78470778861011    1.17778892307462
H         6.15976603563007    6.99179164239957    1.48274261263033
H         5.67338740096161    8.02780633087701    0.13341451921826
H         5.68205093272187    8.67195652710398    1.77162344530686
C         4.21402884629683    7.41448132892416    4.50857941782117
C         3.85089720430080    6.45484970530040    5.64441399632953
H         4.52899480625949    5.60281016397352    5.64982316603562
H         3.91001167546034    6.95125457326595    6.61216765348232
H         2.82797709354814    6.08644475292676    5.50111239854908
C         3.33357103249650    8.65541959348704    4.58610040544987
H         2.31855169888011    8.39985578571449    4.28682076786381
H         3.31657847964477    9.04491937036954    5.60358893703004
H         3.70428525901898    9.44101809462603    3.93339382509601
C         5.69996204311531    7.74582083629248    4.57516812331434
H         6.28539421679867    6.87975590939763    4.27430204247332
H         5.95190621285276    8.57816102564293    3.92477304270717
H         5.97380969089329    8.01865610797645    5.59400215251549
C         5.40750871927989    2.89015411137172    3.05912509332571
C         5.18628247382460    1.69296569737954    2.38689163095965
H         4.28754048624027    1.55140607804732    1.80792434419827
C         6.12676639761754    0.67965147967886    2.44298112041589
H         5.94462495676436   -0.24662815105032    1.91771106186837
C         7.29440125295431    0.84762950890889    3.16755226229598
H         8.02202042118492    0.05069677254310    3.21455239566092
C         7.52808063237663    2.04370117500302    3.82659728132897
H         8.44098105429612    2.18286550124917    4.38706384394287
C         6.59371722344240    3.05968531732064    3.76902373621816
H         6.76674470746064    3.99626257598350    4.27633903486150
C         2.48879683426088    2.57156868223740    3.28925278780297
C         1.72534710299804    2.03616935097271    2.23066986256161
C         0.96332666567670    0.90297153705474    2.45545739213520
H         0.35898056835747    0.49252004887826    1.66154975304774
C         0.97033878427740    0.27852715819801    3.69021185442024
H         0.36999718812978   -0.60481046724388    3.85156419863108
C         1.75307690890910    0.78012639188834    4.71121700270273
H         1.76271860078904    0.27503395020900    5.66557540119177
C         2.51842741509570    1.92380764759858    4.53656247850792
C         1.75906442423009    2.71510566510886    0.87773772512394
H         2.73895102869294    3.19690988656719    0.77042767978889
C         0.69030402314789    3.81121995073090    0.81304079591708
H         0.67399652947023    4.27086508952955   -0.17359090442971
H        -0.29542514544611    3.39643215458251    1.02039776432620
H         0.91046248514108    4.60431136182255    1.55621996139302
C         1.58578625106817    1.74104957647013   -0.28755911328541
H         1.82422516031627    2.24443644411100   -1.22232163438378
H         2.24927487391338    0.88539328127900   -0.17986209895221
H         0.56167832710287    1.38126731132455   -0.35446662255563
C         3.35258317491377    2.44834992497106    5.68233271252152
H         3.88923476603424    3.34033389882190    5.34663332145632
C         2.47394420571510    2.84862734318985    6.87061883622267
H         3.09127060246638    3.25194899875988    7.67075697624185
H         1.75283699024169    3.60928176685087    6.57977000920140
H         1.92693831690233    1.99200873207512    7.25712051716120
C         4.38997874928678    1.40961455262043    6.11480871644008
H         5.05110437808486    1.83301552709925    6.86818076313191
H         3.90658345556307    0.53263822028540    6.53863931359181
H         4.99238296326137    1.09369466779599    5.26635874085891

