39
CSD_code = VISDEJ | q = 0 | S = 0 | Stoichiometry = C17H16N2O2PtS | MND = 4
Pt        4.57144787032078    5.68635848889406    7.61236426306062
S         7.22484368100369    4.02890884858477    6.18885012716704
O         3.44255484399241    6.93268464973484    8.89201862475141
O         6.21882822782363    6.21083797139652    8.66241511711373
N         1.76243834618244    5.22784304628183    6.34648716821203
N         3.45444775925819    4.17766687622373    5.45662559107027
C         3.09439514207697    5.04074775626155    6.44637419091454
C         0.96156779168695    6.06516134576513    7.19547867299271
H         0.20098040479537    5.46800930889708    7.70205371216856
H         0.46977223264282    6.83922739179696    6.60341021057991
H         1.61362390649860    6.52866256836869    7.93312933618258
C         1.26599946936571    4.48930267642753    5.29831903243908
C        -0.02020066941186    4.34969803569003    4.79933631190851
H        -0.85359907903342    4.87221166475144    5.24166271876702
C        -0.19145677382168    3.51430542346504    3.71253966371285
H        -1.17807204319535    3.38075849721099    3.29628059006225
C         0.88526300217363    2.83816326380638    3.14059210254627
H         0.70849096952841    2.19394019498261    2.29298265869539
C         2.17018931417742    2.97096275509945    3.62952956298813
H         2.99089249767834    2.44146446749172    3.17629877461739
C         2.35892237777052    3.80832440844801    4.72119007024580
C         4.82183695693534    3.86282536447593    5.39717990393041
C         5.54282125091307    3.02437034916612    4.51930825018278
H         5.12213154862611    2.46026565665380    3.70800080794120
C         6.86489006078092    3.01981475403855    4.83432179453188
H         7.65553873425065    2.48251177694315    4.35129837945930
C         5.57490676410769    4.49106176854945    6.36826318299920
C         6.29393689366220    6.99799075260319    9.64246062267793
C         7.67627888478143    7.21209042963944   10.22238664255204
H         7.68541047692438    6.94897840490286   11.27782525487365
H         7.95953466799641    8.25850540805256   10.12877002057015
H         8.39378804042176    6.59525101347814    9.68758685974002
C         5.23915906797713    7.69032964297749   10.24523639213491
H         5.47685963257221    8.32957669984962   11.08165385377203
C         3.90643572363626    7.61946662893645    9.84580636253214
C         2.90913376042380    8.45911087804270   10.61899349988285
H         3.05422235118990    8.33478747963296   11.68896859116427
H         1.89436951346257    8.17363934192669   10.35211470042616
H         3.05451639982198    9.51008401055132   10.37408638043214

