36
CSD_code = VISDOT | q = 0 | S = 0 | Stoichiometry = C14H16N2O2PtS | MND = 4
Pt        1.95640738827891    4.72567893934051    8.29291925462152
S         3.98805329580860    5.07158212397483   10.87318384514089
O         1.05927089547069    3.63209655300137    6.69241902709120
O         3.49929123739645    3.40513044153677    8.22737923480217
N        -0.83141035903757    5.89898944653392    8.38744502511338
N         0.68684988102756    7.36955858099275    8.78220827328111
C         0.50531239631929    6.06693287845686    8.47237099064770
C        -1.51120909332685    4.66099650333882    8.12289063020187
H        -2.24110772546086    4.79841019322779    7.32441882343390
H        -2.02538275360685    4.31143114499299    9.02031730588438
H        -0.77481303119738    3.92112897101703    7.81419498642621
C        -1.47355207976188    7.08039596337441    8.63561222555728
H        -2.54038674122123    7.16838904755092    8.61991618678394
C        -0.51601523686475    8.00549499129718    8.88300487238654
H        -0.60090608732352    9.04659630992089    9.11812619761747
C         1.97368985941678    7.98943842510705    9.01479824241652
H         1.80814253130690    8.95801530013652    9.49214874331931
H         2.46537181941946    8.15688563750437    8.04753510129752
C         2.83744022045107    7.11660535783311    9.88685065132464
C         3.65463860786762    7.60749254992109   10.93508995916668
H         3.72773756975376    8.64854578887405   11.19920158339776
C         4.33593902690567    6.61494443022247   11.55953388628869
H         5.02029869235776    6.68950033411241   12.38039130190165
C         2.89487182587060    5.75743490291044    9.71471788660219
C         3.63426678603456    2.40776448656901    7.47229018922128
C         4.88904508892936    1.58286183150187    7.67487825089219
H         4.62669523170490    0.55108026518410    7.89874159115105
H         5.46605187055899    1.99737536594592    8.49754084639638
H         5.49155582963785    1.59371662483593    6.76881606555116
C         2.75813113632882    1.98883464031119    6.46615582657082
H         3.03666130224696    1.11508797432415    5.89675370795765
C         1.55813537424519    2.61575327866632    6.13587414960914
C         0.75550403276374    2.00589759271853    5.00187640150572
H         1.37666869913115    1.89899917972344    4.11565736475290
H        -0.09886923306068    2.63842792236747    4.77201366691267
H         0.40112174162945    1.01802602267524    5.29172770477843

