49
CSD_code = VISGAI | q = 0 | S = 0 | Stoichiometry = C14H30Cl2N2Zn | MND = 4
Zn        9.80757316803411    7.58654807606185    7.18834666880613
Cl       11.71076085927806    6.75004926962582    7.93598830191474
Cl        7.66447254092722    7.29454996143784    7.72651180707499
N         9.85360507667196    7.59370628608251    5.00011985656806
N         9.71016782905707    9.77400841489731    6.93839808981832
H         8.72724235947452    9.92385002130356    7.16832667596074
C         9.42253399151122    5.13813658318980    4.88128502633116
H        10.31433936174185    4.83098908185855    4.34167689427345
H         8.62870507836800    4.42939407533673    4.65969399452075
H         9.62597417675078    5.09649253380270    5.95206994095806
C         8.96504921909435    6.53553801262943    4.49234452238449
H         8.86233559553462    6.61260138510519    3.40205623872568
H         7.98286819405208    6.70655725213879    4.93924121376857
C        11.43232846888463    7.43184505006067    3.00197916612962
H        10.94528386587867    6.57578391094844    2.54350142786779
H        12.49681516085856    7.36119285595872    2.79439355423614
H        11.06077559045515    8.33906826548426    2.53140953182652
C        11.23733103368566    7.44986184881329    4.51684743606485
H        11.63639972588115    6.52954536265345    4.94316897523446
H        11.82223466412987    8.26474802479593    4.94452754285179
C         9.27872142171262    8.90441921246448    4.68698121504428
H         8.21361803195231    8.85569255377870    4.92766354562320
H         9.37701412025065    9.14164411521180    3.62080487129922
C         9.89204630809897   10.03524909706341    5.51338699457014
H        10.96378571661139   10.11879733410776    5.31781275102501
H         9.41330916715788   10.97145358445070    5.19893242627550
C        10.51063148398265   10.60987340458967    7.84951775203053
H        11.56339189171389   10.42656122895996    7.59840527458831
C        10.24032199587076   12.12079519333980    7.67098975759069
H        10.39854718506264   12.35774334651840    6.61198718209728
C         8.81626672298094   12.54134804992827    8.04022799174658
H         8.08049822630363   11.94616405814312    7.49311023777125
H         8.65039326574798   12.38526499567149    9.10686698667785
C         8.60638333385708   14.01930550668178    7.71748232207546
H         8.72563190872219   14.17873709639075    6.64255143780745
H         7.59044433423324   14.31459204010472    7.98686242164474
C         9.61449558208066   14.88133928347989    8.47102371572769
H         9.47260259109783   15.93198368909061    8.21095979288268
H         9.44678818596425   14.77692754847001    9.54514258445420
C        11.03989985413981   14.45041684772047    8.13907413693873
H        11.75194302980848   15.05056489616912    8.70849330398221
H        11.23395444872582   14.62144218287482    7.07735888108471
C        11.23681636563630   12.97159698457702    8.46272018612896
H        11.08685114385152   12.82365587631453    9.53272458466858
H        12.25777219682629   12.66916074553233    8.21989965835863
C        10.26225322456190   10.11349131045317    9.26921424091956
H         9.20670924125742   10.17266766187655    9.52301586868628
H        10.83323908544155   10.69345228332412    9.98704304995227
H        10.57757397608048    9.07399360053071    9.35345996303474

