45
CSD_code = VISHEM | q = 0 | S = 0 | Stoichiometry = C18H23NO2Pt | MND = 6
Pt        3.08314306403941    3.30317605004913    0.73778410371729
O         4.28564362868459    5.16325705891914    0.45174068099167
O         1.88886230339699    4.55424616168880    2.14302242982390
C         4.01024269878666    6.29839306111651    0.90282954010990
C         2.96885833835799    6.64960775842265    1.77070489577572
H         2.89124679455389    7.69624935609446    2.02329615763327
C         2.02081799384113    5.79024675549916    2.33724258059229
C         4.90608211011048    7.44325386654769    0.45534426465101
H         5.40991949967486    7.87673701471362    1.31662571278186
H         4.31154648332531    8.22075797427506   -0.02029170161842
H         5.65098978105681    7.07425304281898   -0.24539633725929
C         1.01357737509464    6.41757104465779    3.24838516330073
C        -0.29950612120235    5.95834342087026    3.21079389586895
H        -0.55253090335007    5.16048818146051    2.52814346230523
C        -1.26327903417150    6.51293811834664    4.03139758283084
H        -2.28184689612722    6.15471781896292    3.98630689433902
C        -0.92154290289166    7.52238046026266    4.91580098542044
H        -1.67202974696877    7.95518415554044    5.56116520883914
C         0.38853066301641    7.96746665823266    4.97880946377051
H         0.66177886213436    8.74225487858862    5.68070122296858
C         1.35160802498744    7.42163200655695    4.14956571244011
H         2.37465324360346    7.76073968136262    4.21978724045228
N         1.74592091248903    4.26330413236039   -0.78347257072498
C         0.52469148180063    4.56874340449854   -0.35666508467076
H         0.06283723637322    3.85717906436312    0.31479578576633
C        -0.13571734105931    5.72536379895983   -0.73525006737920
H        -1.11990938970721    5.94063591702618   -0.34939043428699
C         0.49857039201073    6.59965680902065   -1.60348496414237
H         0.02092194052407    7.51956849089262   -1.90686763448220
C         1.75591478108020    6.26293465124625   -2.07875558770401
H         2.28183067117521    6.90480373873927   -2.76821156022628
C         2.34028646981462    5.08579421292907   -1.64148969666265
H         3.32240501666968    4.79066004946913   -1.98646527012442
C         4.31748717092716    2.69568477827748    2.24750655635927
H         3.83979412467363    2.98813196534811    3.18429755263889
H         5.25684395997935    3.24007482648242    2.13706759649872
H         4.52668601792648    1.62816766451507    2.27437856136570
C         1.88688924903760    1.66932764046478    1.01426481456065
H         2.41543647816642    0.74120418761899    1.22351748966219
H         1.26742299810319    1.51828933605751    0.12760322675931
H         1.24343516221447    1.89926783281539    1.86605111573575
C         4.18784524159309    2.25506671292774   -0.62593113452908
H         4.56227943865310    1.29515457904083   -0.27534285560291
H         5.04180873535005    2.88580021902085   -0.88062576232794
H         3.59055399225085    2.08409146295689   -1.52388923623479

