24
CSD_code = VISJIT | q = 0 | S = 0 | Stoichiometry = C8H5CuF9N | MND = 4
Cu        3.75262970973817    5.65081693459973    2.26459121401389
N         1.89548462433315    5.88465241680556    2.02384229941528
C         5.67662506473410    5.43071984480359    2.59551556456575
C         1.41980836583990    7.04831247886719    1.58909172165970
H         2.14085932847577    7.83127957943911    1.40586671443438
C         3.95097804192820    5.00474863294718    0.35163405074252
C         3.47072093496768    6.30682340091718    4.16302214055435
C         1.05971055940776    4.88080528183032    2.27537135698969
H         1.49773513054184    3.96023752615537    2.63207612035521
C        -0.81284695520135    6.21464051356218    1.64516114346281
H        -1.87392838134457    6.34419387200115    1.49767442554972
C         0.06807487164822    7.25372118484392    1.38712830335820
H        -0.27996379741030    8.21099893321806    1.03528061447266
C        -0.30516207011160    5.00665154996616    2.09829834519560
H        -0.95100223770812    4.17140128628415    2.31409188473301
F         5.89760841242807    4.56467823638627    3.60361384931659
F         2.55593654509657    5.51143313791858    4.79042182139753
F         6.24349923277069    6.59907103030619    2.95435778066164
F         2.89057917775008    7.54229438421171    4.13835339355849
F         4.49366529116090    6.41414199309672    5.02125220879158
F         6.42350096219083    4.97788620100555    1.57409563694777
F         4.75448567389016    5.77515325457235   -0.41093630329344
F         4.40935046294808    3.74015287370417    0.24182032099884
F         2.75775105192160    4.98958545255501   -0.32522460788286

