27
CSD_code = VISJEP | q = -1 | S = 0 | Stoichiometry = C10H7CuF9(1-) | MND = 4
Cu        2.46409247252173    2.43712993607282   10.14169128443119
C         1.90790279769939    0.65853977433507    9.33698734065397
C         3.63811750896328    1.47313289647107   11.43387039223765
C         1.15930656969034    3.36677606088818    8.94904288147698
C         3.21531375759734    4.19004595002438   10.77000842822480
H         2.50978548944437    4.98662577725848   10.54264285158806
H         3.36438496747515    4.15959796865889   11.84848296133822
C         4.49145102806966    4.41171461777948   10.05915311417331
C         4.50241865340444    4.92982469651237    8.76203330185193
H         3.56493977688515    5.16493031227674    8.28058816757325
C         5.69026143861881    5.13507691838443    8.08922814153008
H         5.67588423044397    5.53378080125446    7.08402461561345
C         6.89810084550738    4.82910292632542    8.69545803146734
H         7.82823204575137    4.98596749807836    8.16639439592957
C         6.90441552115005    4.31969746471036    9.98325552545704
H         7.84299255310919    4.07956473039459   10.46388256154705
C         5.71669333109748    4.11365495186238   10.65744696848576
H         5.73247505711311    3.71768350154242   11.66160860037909
F         1.53048371330108    0.69764600266805    8.02227549536775
F         0.84688053512137    0.07370084452985    9.97030701725450
F         2.87313058519701   -0.31145011048552    9.33639229504163
F         3.09227576469151    0.31967652275363   11.91320941008407
F         4.83058175627484    1.09723099641681   10.89394749826263
F         4.00298302839246    2.11657396210254   12.59275646624657
F         1.60904543559274    3.50880433252865    7.66945563834009
F        -0.03094412270596    2.71433189457925    8.83145129624528
F         0.75619525959310    4.64073877207598    9.27890531919983

