26
CSD_code = VISJOZ | q = -1 | S = 0 | Stoichiometry = C9H5ClCuF9N(1-) | MND = 4
Cu       -2.53689231544709    6.49263762320735   10.47195304724104
N        -1.94187646540439   10.49923584685985    7.98654149660856
C        -2.61154109733528    7.89995345481687   11.88244387772343
C        -1.12694328032651    5.51798483770660   11.55565785039121
C        -2.47198830044586    5.01658396989160    9.12891586938528
C        -3.79919358821391    7.53758081152508    9.31461437093711
H        -4.45147776274819    8.14487422017536    9.93867687132645
H        -4.41518420576095    6.84663989411210    8.74165797539126
C        -2.99751195373267    8.38750533648227    8.41751118354506
C        -2.54869139577711    7.93022058208702    7.17308255348271
H        -2.78973890256473    6.92964286642243    6.84829152789912
C        -1.80097372317727    8.75690998780416    6.35758641648162
H        -1.43897500987092    8.43186759485133    5.39534470061585
C        -1.53347537391027   10.03371592220021    6.82727897386861
Cl       -0.61983579564020   11.13210443989079    5.85519702618402
C        -2.64744177078516    9.69716814957314    8.76214608932179
H        -2.95660639687930   10.12577521202490    9.70526536413907
F        -2.61461525673521    7.40138120613887   13.14901170522333
F        -3.68251157544695    8.76009487510827   11.90679023594256
F        -1.54129833702999    8.73807658281880   11.82891594037353
F        -1.66147546262489    4.60075062623654   12.41463518740449
F        -0.33289401863033    6.29620311254107   12.34701938293158
F        -0.21606199654278    4.80782925954917   10.82612798067411
F        -2.38888241828425    3.77294731225567    9.67208547670144
F        -1.39151156903846    5.11843159137244    8.30422466614870
F        -3.52080202764827    4.87958468434701    8.24982423005744

