75
CSD_code = VISRAQ | q = 0 | S = 0 | Stoichiometry = C32H32N6O2PdS2 | MND = 4
Pd        6.83616332473870    2.78832458606573    3.23312325591837
S         8.78104447112478    1.93361706999425    4.18795211356554
S         6.57054754747356    1.76191798003360    1.15895363187641
N         6.54413162623261    3.38159514696948    5.16084014341713
N         7.63507301699460    3.68134291227568    5.88863824463522
N         9.92344603881198    3.31768302319041    6.07437376725048
H        10.69168767550849    2.81967645791176    5.64277331050408
N         5.49295146999025    4.06260501712240    2.39604017953317
N         4.58827790922341    3.54977707469094    1.54126237957957
N         4.22246883963345    1.80771412970320    0.04211492987082
H         4.69268281925436    1.02671794228123   -0.39841298396582
O         0.95596121516401    1.65944073462527    2.73487416975643
O         9.99582775284654    7.05776419150604    5.55746917087253
C         4.22585717848647    3.04861643783934    4.89383457319575
C         4.31507636282753    1.81200511385410    4.23539439529234
H         5.20050359281823    1.17305620507660    4.37095272608905
C         3.24502441744338    1.31747211019587    3.50690060514762
H         3.33947528073340    0.35447317026188    3.02955432764369
C         2.06750355066500    2.05351566182991    3.40279292457028
C         1.97862747976696    3.28682491069058    4.05560271826065
H         1.06013525934215    3.84492281841897    3.96403146252195
C         3.03292141189799    3.76806622402385    4.79655293096121
H         2.94848591245302    4.72628216464731    5.28816803698442
C         5.36681361090307    3.54262247484491    5.66563635211494
C         8.72853235272362    3.10700839124160    5.47215583877332
C        10.25014855145284    4.10859312414583    7.16501713674871
C         9.29607196461655    4.76028326816209    7.94265637776201
H         8.25709054188589    4.66458239968382    7.67748544258761
C         9.69289935166139    5.51344975998588    9.03200581536509
H         8.94399331527937    6.00513110519634    9.63739705989337
C        11.03304805440214    5.64020093627682    9.35732677050134
H        11.33414583870382    6.23250726975085   10.20822185874344
C        11.98428035080809    4.99810813140419    8.58145324541257
H        13.03263116707402    5.08970863266715    8.82468848056249
C        11.59956696204782    4.23480507626940    7.49768499580029
H        12.34437546108502    3.73002691704304    6.89856117892843
C         5.17850571293224    4.15522611490461    7.01926416128067
H         5.77998141775346    3.60911755403116    7.74592677806389
H         4.13626592197945    4.13067396641287    7.32095326282945
H         5.54016757248197    5.18363473914134    7.00711596642540
C         0.95596099326691    0.40496596358197    2.09657164123401
H        -0.02148879535119    0.31574854847731    1.62592269519038
H         1.08961961360221   -0.40874038489686    2.81681585984678
H         1.72824886849911    0.34597053630016    1.32482483893516
C         6.62257424504538    5.82181208699267    3.46363773639588
C         7.91983182596004    5.38459479520927    3.12347505150423
H         8.08590772866219    4.77810460561068    2.22141395462872
C         9.01137402585617    5.82385013674482    3.84225279388662
H        10.01088822315997    5.51083178015507    3.58210019355546
C         8.85355942921923    6.69455985476698    4.92515061378777
C         7.57666162871213    7.14464226514033    5.24925392127354
H         7.42285088514542    7.82311902124971    6.07357866025152
C         6.48226225339266    6.71717859734901    4.51846735802077
H         5.49584634107738    7.06290254008564    4.79259045187010
C         5.47863580760647    5.31675482246739    2.69923850302986
C         4.98765317691118    2.45811350705272    0.95240292598953
C         2.92169970871076    2.05063298147855   -0.37586069284929
C         2.38107386530342    1.19897831431246   -1.34155149799114
H         2.98864390817455    0.40237075340641   -1.74890766623556
C         1.08039330791458    1.36919291098815   -1.77262589067174
H         0.67506946328624    0.70265254401742   -2.51965920181682
C         0.29949308519506    2.38674412592278   -1.24914777210245
H        -0.71828239905902    2.51621155920070   -1.58461648950957
C         0.83543400474594    3.23580729599641   -0.29536688495740
H         0.23267494727766    4.03061709097400    0.11781734001046
C         2.13662264332578    3.07830207560338    0.14239774994522
H         2.55809105539427    3.73066127010538    0.88781009511227
C         4.38423451814632    6.22583721730530    2.23452191620218
H         4.21456106220591    6.06654021294256    1.17010175226669
H         4.63513164890362    7.26632871019050    2.41563033743344
H         3.45712244319597    5.97368708901924    2.75022279319361
C         9.92383205711966    7.99686523305972    6.60314641262210
H         9.52397927601301    8.95403289461976    6.25227693061423
H        10.94837208814031    8.13445138490166    6.94413169272893
H         9.31947476399903    7.62448671517452    7.43484414114250

