99
CSD_code = VISWEA | q = 0 | S = 0 | Stoichiometry = C53H41ClP2RuS | MND = 5
Ru        5.17244896217773    0.08666281623996    3.95413579329190
Cl        5.05001134356911    1.90058597891460    2.53795738689791
C         4.69777765664520    0.12829624802866    5.95171134260629
C         4.25967205389279    1.44350278577592    6.04765958990006
C         3.96315192983676    2.62671326499117    6.02499390956723
C         3.61378000024978    3.99209010937135    6.00533435746168
C         3.16107320209912    4.62645814827952    7.16504020858675
C         2.83123040140373    5.96675900785469    7.13146089010738
C         2.94707306064029    6.68689024088417    5.95207295705136
C         3.39661053010210    6.06137361955471    4.79916865951269
C         3.73028253479198    4.72195436418265    4.81781415388264
C         4.76602092665157   -0.78256429062281    6.93263282184918
C         4.30354114119583   -0.63202757314436    8.30232445875703
C         4.84076923011495   -1.46084318490712    9.29055105719752
C         4.42097212137461   -1.36436282164894   10.60185322137438
C         3.44164775800343   -0.44949104465438   10.95410426336597
C         2.88575245730383    0.36433393301116    9.98035509168412
C         3.31014388554795    0.27721076928361    8.66910834740048
C         5.58602903273826   -1.69373104130746    4.07805654114490
S         5.98685085767664   -3.19632226524254    3.91083079482994
P         7.37048678558361    0.64897108907449    4.39417795730919
C         7.91060833364333    0.31756850285099    6.09927041670720
C         7.98054138993690   -1.02078327260537    6.48329156699414
C         8.29139010368866   -1.35528230613936    7.78595791184424
C         8.51659412414780   -0.35832870953427    8.72279009872798
C         8.44252380793059    0.97131509306995    8.34706042698033
C         8.14172522694285    1.31348184171837    7.03947571262200
C         7.90260424717153    2.35916311986272    4.08241239921102
C         7.12644564215393    3.37219828408807    4.64239593279763
C         7.43778412017261    4.69741227401584    4.40910089943437
C         8.52321184068754    5.02027927319500    3.60966471659368
C         9.29240109300404    4.01627963356948    3.04600984783647
C         8.98540742431395    2.68600329457375    3.27544224702603
C         8.52266917788749   -0.33697125851888    3.39552991744184
C         8.06931578658112   -0.76708074834918    2.15194001048367
C         8.89011090136115   -1.52022354242716    1.33393487755062
C        10.16900699188616   -1.84638427440618    1.75593297865762
C        10.62763511408019   -1.41315481372514    2.99009030702234
C         9.81083805583357   -0.65741139520916    3.81155684454198
P         2.97929814201943   -0.43680431278379    3.40942228700317
C         1.98163914228822   -0.99256624117545    4.82469632658939
C         2.43309663075892   -2.13621751954954    5.48304178852756
C         1.81250588328403   -2.56499459180302    6.63888210764734
C         0.74324276719935   -1.84992476948711    7.15622761996043
C         0.28849877194413   -0.71759797212121    6.50357223013150
C         0.90412095852192   -0.28435580229728    5.34099412162670
C         1.94051755685206    0.81723302816252    2.60131312883683
C         1.84700191616204    2.05817484904617    3.22857539460876
C         1.10987058314986    3.07521103835083    2.65467020625966
C         0.46423761744228    2.86144779284523    1.44676362529370
C         0.55921707983734    1.63146965773706    0.81776423102082
C         1.29760949901829    0.60823370515348    1.38731753647007
C         2.90950169060433   -1.83308529657346    2.25093920004359
C         3.92113467180703   -1.89422779463015    1.29576240009760
C         3.94517571115283   -2.92102476038976    0.37195345435198
C         2.95794539848626   -3.89360263738916    0.40019485971374
C         1.94673253133080   -3.83325573065317    1.34553250452743
C         1.91599194111246   -2.80485455103715    2.27090678743016
H         3.07675862193126    4.05821104571852    8.08056438213793
H         2.48233497473388    6.45567554237920    8.02976983907675
H         2.68832695413982    7.73552662825163    5.93240179382004
H         3.48882730649835    6.62236055145893    3.88008782592436
H         4.08441152681089    4.23130543360903    3.92259257166848
H         5.22679556084610   -1.73858377605589    6.71412837173441
H         5.60276831501632   -2.17678446811795    9.01727658852291
H         4.85335344850431   -2.00820350242670   11.35467245164652
H         3.10821363024439   -0.37735710539406   11.97902954462243
H         2.10987137216159    1.06838404976622   10.24647138882929
H         2.85583192956924    0.89859075950065    7.91263989163917
H         7.78949235907904   -1.79059431468091    5.74674995228868
H         8.35372769485799   -2.39446945733864    8.07486772132143
H         8.74773675885926   -0.61863923670579    9.74508067541637
H         8.61828614897327    1.74931398992521    9.07567371773136
H         8.09151160901554    2.35450231531503    6.75281563887469
H         6.26784587965311    3.10711696878013    5.24720960189853
H         6.82663681218636    5.47741850985361    4.84071096922439
H         8.76338814702862    6.05588569125443    3.41792752810119
H        10.13256823894944    4.26905119178924    2.41535242133470
H         9.58069140043841    1.90610528645423    2.82133927093729
H         7.06172648400751   -0.50115682655367    1.84008973982091
H         8.53436625605632   -1.85810826078936    0.37174049921541
H        10.81040183066543   -2.44121853309099    1.12245486241047
H        11.62625511979252   -1.66763252024864    3.31436578343389
H        10.16379827830097   -0.31971259783345    4.77647935321215
H         3.27640343784180   -2.67803055337350    5.07398111454593
H         2.16883169074933   -3.44880452025115    7.14670163120430
H         0.26770646277092   -2.17496120111935    8.06957755990626
H        -0.54758369976325   -0.16212304997964    6.90329808930608
H         0.54354173147173    0.60209812871897    4.83799908128851
H         2.36942906254153    2.21682024028077    4.16329196575985
H         1.04754581728418    4.03661314277255    3.14452591476293
H        -0.10675383425224    3.65747032203918    0.99152065014886
H         0.06124164176949    1.46831806236419   -0.12716861209287
H         1.37783011013431   -0.34669022629309    0.88665200140525
H         4.68685640254676   -1.12178709964785    1.29327427180738
H         4.73322544028646   -2.96992951634108   -0.36508171005697
H         2.97810178100493   -4.70241986156983   -0.31529220736285
H         1.17876996664535   -4.59287279639116    1.36316602997812
H         1.12994958457021   -2.75598767741090    3.01183110820688

