56
CSD_code = VISWUR | q = 0 | S = 0 | Stoichiometry = C19H33N3Pd | MND = 4
Pd        1.03882880553968    2.76534144343856    5.78527479149803
N         0.61344214258783    3.00403883452247    8.04370426283439
N        -1.55663174148775    0.93352711655817    6.93639083027132
N         1.33839499832291    0.58312230188920    6.48107950385296
C         0.85682970046824    4.65025437927990    5.13683452113825
C        -0.05002815431750    5.59414073006167    5.59773028581128
H        -0.81374407890859    5.33601374830442    6.32759730589808
C        -0.01380338304092    6.89837520635447    5.11881607261346
H        -0.72217187498061    7.62740509283739    5.49128122008082
C         0.91848768051527    7.26628230659843    4.16768774123495
H         0.94591976570025    8.28368118721486    3.80169308867576
C         1.80344270862314    6.32435171780305    3.66509679950266
H         2.50962484598964    6.61115995744424    2.89822669018190
C         1.76686963247867    5.02464655076586    4.13756240605182
C         2.61206691984890    3.87047739076055    3.65195812374798
C         1.69602699784464    2.65219360495089    3.85024795102200
H         2.24935693268631    1.71812992921862    3.66017285802464
H         0.85873578776736    2.70503764303600    3.13671804973857
C         3.06836338065266    4.00298555921892    2.19683662334518
H         2.21664757872726    4.20902899520688    1.55155756100680
H         3.53572030309886    3.07637277050261    1.86661788967694
H         3.79278090406024    4.80737958056809    2.08452640830050
C         3.83707476448154    3.73706055930780    4.57231318694957
H         4.43364396164988    4.64795587545949    4.55224538787654
H         4.46206697486495    2.90168616070605    4.25784464673914
H         3.49065327075337    3.55956759436306    5.60316272519315
C        -0.80318232724285    2.81817785577716    8.39390831746163
H        -1.20802111254014    3.77696491783157    8.72976441128650
H        -0.91331849643077    2.10459851686605    9.22023408958022
C        -1.65402905457762    2.35861615528124    7.18914570390930
H        -2.69904824109794    2.63626574512280    7.38073738100447
H        -1.29877765481047    2.93115904456854    6.31085325236456
C        -0.99912080360564    0.51699194420890    5.66230397670191
H        -0.77795276563512    1.39934081261393    5.02927586838104
H        -1.70634504075528   -0.12483849914045    5.12130208060252
C         0.32698951355007   -0.24958950403016    5.82547817237278
H         0.16575198700806   -1.18393884858199    6.38593227145611
H         0.68089620974547   -0.50728065405912    4.82355039144566
C         1.47058123175610    1.93276895975260    8.55299617295972
H         1.38499032818560    1.85282334952564    9.65292087999113
H         2.50829993487783    2.19659417117854    8.31513973185811
C         1.13960209604058    0.57824823771470    7.93526936781264
H         1.76408806959031   -0.19438207010278    8.41099505815466
H         0.09281930784826    0.34947116681324    8.13684371783908
C         1.12260451004536    4.27721686588684    8.54851550629516
H         2.14210105577411    4.43209924772004    8.18820350758512
H         1.12726134006128    4.30277675264926    9.64959027226226
H         0.51472339590333    5.09938576640743    8.17658497271844
C        -2.71634428692418    0.18041057747226    7.35103434977792
H        -2.95536210572297    0.42217536574566    8.38684513249087
H        -2.49660213800357   -0.88560226350791    7.29394393586308
H        -3.60465271296779    0.38621251194392    6.73261454083912
C         2.68634504641217    0.12177631937773    6.16664981075022
H         2.85233031816004    0.15403700506278    5.09066106650368
H         2.85273038859522   -0.90943737038497    6.51714044407291
H         3.41954318283088    0.77404168390729    6.64338868441662

