58
CSD_code = VISXAY | q = 1 | S = 0 | Stoichiometry = C19H34N3OPd(1+) | MND = 6
Pd        8.66362365901528    3.33807522015316    7.30212780892713
O         9.58347136594251    3.20020238054011    5.55882220281091
H         8.97962578287348    3.14615871652790    4.81232412698194
N         9.86752518563517    5.30518562707582    7.77391529793782
N         7.95038161023592    3.75694939578817    9.36429902636027
N        10.45180099498311    2.53768581427881    8.61096257557137
C         6.98540014159680    3.85923896412165    6.29548034575040
C         6.60715550753424    5.17509440065404    6.09641806615058
H         7.22107015345181    5.99680411460215    6.43777711510089
C         5.42387365053197    5.47319319836798    5.43287165651874
H         5.14226660553335    6.50419768957005    5.28293519531738
C         4.61933455075527    4.45166482302379    4.96338463677709
H         3.70217884372298    4.68060504278229    4.44372631644166
C         4.99707811449250    3.13604655605647    5.15565895271843
H         4.37073222627430    2.34082427102781    4.78242168337282
C         6.17804454152231    2.82548899778017    5.82109328358264
C         6.64688978641662    1.40501505421963    6.03911675918984
C         7.87582632838202    1.45303192044257    6.96142402149033
H         8.69244357575716    0.86863674123725    6.52435599676955
H         7.62325396878833    1.05502735614089    7.95186292407828
C         5.54174018021511    0.56483748121669    6.69755063250817
H         4.70422984395304    0.43492307680481    6.01881712386227
H         5.17570552778080    1.04616813299455    7.60208966291347
H         5.92200429080866   -0.42224380209378    6.95028808888408
C         7.01968023135805    0.77564000770990    4.68825434559723
H         7.85616587996210    1.30259260208924    4.23534054392790
H         6.17824150491417    0.81637216667908    4.00210697718675
H         7.29932599314291   -0.26631845003923    4.82520179293037
C         9.36056132618575    5.84260896524181    9.04682195951958
H         9.22379792029641    6.92779888149645    8.98175728042765
H        10.08653606683701    5.67432907483034    9.84550425747655
C         7.99802371150569    5.23243855450151    9.42258929363462
H         7.72553407646927    5.57858846973746   10.43129720784875
H         7.23956288517654    5.60548504613041    8.72774267640798
C         8.82444889902099    3.15485850618509   10.39739237329987
H         9.39664403520306    3.94296053297560   10.89056448917059
H         8.21605907257613    2.68305949871558   11.17584210750236
C         9.78218516566971    2.09204499410751    9.83725042325226
H        10.51143886801678    1.83191640087763   10.62060115758178
H         9.21606007221839    1.18660445128565    9.60110367497299
C        11.40382091253236    3.62887256444790    8.86674807524897
H        11.28733557157899    3.99488663622189    9.88942326351971
H        12.43517956100859    3.26605535450109    8.78329539142208
C        11.23590961533781    4.76833377071654    7.86197995854478
H        11.94807480029595    5.56859144202662    8.11756445826247
H        11.48034731369381    4.38923948099777    6.86415886606098
C         9.87634326404278    6.31942792588502    6.71590026839885
H         8.94796229611884    6.88551447197756    6.71440254337650
H         9.99142960472783    5.82577698863032    5.74983977025428
H        10.70228420449851    7.02832383093705    6.85458749519685
C         6.56228528388578    3.33056717361752    9.57423216126910
H         6.50671242411176    2.24373803497957    9.59233588618107
H         5.92975531607080    3.69632311814226    8.76448739903174
H         6.17082312825327    3.71289726012210   10.52475077492735
C        11.13835384397944    1.42470617975774    7.95177137279711
H        11.46255141178185    1.74586382885283    6.96182010573575
H        10.46489250792821    0.57721455010234    7.83690605325603
H        12.00921679539981    1.09297651225187    8.53080209576008

