68
CSD_code = VISXUR | q = 0 | S = 0 | Stoichiometry = C22H41N3OZn | MND = 3
Zn        2.31468957183511   10.81320417969391    6.45327491654547
N         0.96642229716474   12.23992663167239    7.28013128457505
H         0.51148906258102   11.75151995743270    8.04294435300288
N         1.72092018697588   14.33199504819281    6.66268839520069
N         1.27784762983009   13.90725560379563    8.90113038653821
O         3.20529162525569   10.62199301741434    8.10638053430880
C         4.24892567394997    9.84666163164880    8.37723278385368
C         4.06431895553163    8.51002936826119    8.82137250357643
C         5.17519013920896    7.69760661892112    8.97404194353011
H         5.05765651083151    6.66717978357356    9.26819415992057
C         6.46281918209835    8.15486335298854    8.75639668601208
C         6.63749920261659    9.49004078119190    8.43754334744913
H         7.64917925693513    9.84326192571450    8.31888707402879
C         5.57045161965795   10.35549125713181    8.26608306852391
C         2.67366721030127    7.96069613777585    9.14966988237612
C         2.71932373073360    6.58471144230806    9.82969812841195
H         1.70988647485782    6.30032901790212   10.12417786781539
H         3.33663737295888    6.61076260433623   10.72453457157935
H         3.09612267677665    5.81831735555569    9.15638831508210
C         1.83762574760532    7.80097013640460    7.87376243440142
H         1.66337821214307    8.76763155667222    7.39464861484372
H         0.86917678753730    7.36034477104078    8.10802820237753
H         2.35160544689279    7.15236043293526    7.16717712884814
C         1.96738995454923    8.91320090085218   10.12337370556854
H         1.90569750700584    9.90483160698026    9.69003359151537
H         2.52755977022833    8.97788611162880   11.05408454167256
H         0.96083294021529    8.55965240905112   10.34358393984007
C         5.83369280450719   11.83439084666700    7.97214298450757
C         7.31062373107863   12.22156918513795    8.13478229908329
H         7.93552851790799   11.73901746456361    7.38715993605134
H         7.67484860859062   11.96316574321445    9.12610895033480
H         7.41420256480806   13.29863045917343    8.00705756338144
C         5.03562074719028   12.70581063322161    8.95147116664040
H         5.22530853792831   13.76226282550326    8.76222963439478
H         5.32909640642595   12.47684719098000    9.97392475883128
H         3.97471958743712   12.51016816233836    8.84541421834200
C         5.43696115477981   12.16942983915505    6.52888290583549
H         4.36664565419275   12.01436066099636    6.37709016312627
H         5.98017065924882   11.53271630617000    5.83333313509847
H         5.67335203539276   13.20919969737913    6.30174847710029
C         7.64130464441594    7.23067721480932    8.87056432743092
H         7.42402837421249    6.40540046642522    9.54579424220758
H         8.51759948671415    7.76164541301615    9.23816231556749
H         7.88936515203367    6.81015893016777    7.89419303939979
C         1.32604047302891   13.44010721997844    7.61962345510583
C         1.53536747731710   13.97902498729512    5.27445879834389
H         2.35867119675700   13.36712618935893    4.88930017056304
H         1.47882247753040   14.89959887392755    4.69209310249692
H         0.60846697951007   13.42257680077177    5.16628670364724
C         2.86199822014798   15.19480357486435    6.89020189519001
H         3.13845165237446   15.19542115166883    7.93947132246522
H         2.63269399007070   16.21493325256600    6.57290795725561
H         3.71941583587759   14.83644226707006    6.31226980160425
C         0.89794683900683   15.26350296527965    9.22186405852378
H         0.72721853462221   15.83043086629036    8.31123867939492
H         1.66974783040409   15.75747352302301    9.81850383510713
H        -0.02930435796552   15.25451707721213    9.80385608420197
C         1.21709813582854   12.97753931378835   10.00563201906226
H         0.18883322288610   12.69220869727117   10.25865549989110
H         1.66833564651847   13.45063673821265   10.87800895972606
H         1.79510542249443   12.08640387141293    9.76412238258672
C         2.59429930408112   10.04615031155802    4.60662466612376
H         1.69593912492285    9.53860115254771    4.25739702918686
H         2.78936344811321   10.83721255585233    3.88170269256183
C         3.75656123555179    9.05472317288142    4.56361420076536
H         4.68930991475808    9.52178750690578    4.87278948597118
H         3.89139687947859    8.66944422695939    3.54984737571923
H         3.57804710346528    8.20925902316331    5.22370734575622

