33
CSD_code = VITBUV | q = 1 | S = 0 | Stoichiometry = C7H22NP2Pd(1+) | MND = 4
Pd        0.21524925550297    1.79411874995935    1.30598835419011
P        -1.66172180846992    2.77364527260083    2.03156598486744
P         0.81010526831016    1.46296081939628    3.60095809449393
N         2.03845368474197    0.86759682683647    0.47054883770623
C        -0.41220789009268    2.11028337885479   -0.62866182202712
C        -1.65832266423657    4.58820177045370    1.84936715065361
C        -3.31723954052609    2.26774915270808    1.46094450014740
C        -1.76355896322849    2.49521634007482    3.85648065096342
C        -0.38148010756745    2.56489711730416    4.49694760655693
C         2.35441233968717    1.79712219379534    4.53026722667666
C         0.34525910609421   -0.19500436497947    4.23521340399890
H         2.04816591836917    0.87698218036840   -0.54857174523278
H         2.86566071725659    1.36368484291796    0.80223521366751
H         2.10077461801969   -0.10232707464261    0.78064603387850
H        -0.47768703204097    1.11876699501169   -1.09641453044635
H        -1.35614543481999    2.63053816189246   -0.79498068502205
H         0.39012706295407    2.69645596153770   -1.09785668143573
H        -2.52654230218320    5.01844859236087    2.34686758553291
H        -0.74515647860294    4.99915330466979    2.27853784702484
H        -1.68401781287279    4.83969235949477    0.78991423464015
H        -4.07466797793923    2.72417945701991    2.09743034953481
H        -3.47191344703740    2.58677199486134    0.43231876695629
H        -3.40528899580837    1.18336578187275    1.50805366256625
H        -2.19830668555296    1.50274043124592    4.00923309475344
H        -2.43985893667976    3.23320198692189    4.29776197699876
H         0.01097207480865    3.58473921343094    4.43284489946179
H        -0.42610207202407    2.28363740411758    5.55313691147603
H         2.17752853503856    1.68926731585804    5.59908764245332
H         3.12731388092596    1.09322668969768    4.22479188430719
H         2.70025060015038    2.80779423437301    4.32048347013189
H         0.24628068482624   -0.17825279694537    5.31928116088546
H        -0.59318858896392   -0.51388428134309    3.78234322051450
H         1.11755299195926   -0.91227001172641    3.96013569912654

