71
CSD_code = VITHAJ | q = 0 | S = 0 | Stoichiometry = C33H27ClCoN5O4 | MND = 6
Co       13.35201107538489    7.15017665996721   21.24975455701576
Cl       13.35194520395464    9.32900608702451   21.24975129910919
O        14.95896004616274    7.17378716440434   23.65274615163429
H        15.60564137728028    7.18266255027934   22.84376626524094
C        12.69086556363894    7.37376627867263   23.86745461102847
N        11.55988806140825    7.17816931622821   21.87683133155408
O        10.56219799926072    7.06604635682159   21.07984595369770
N        13.72311698972918    7.23224261723302   23.10096183740431
C        11.42931272087372    7.34986469075720   23.16335895046803
C        12.00271656469243    6.66297038461555   26.14271563738278
H        11.35336655801162    5.92515363782122   25.69471350128671
C        10.13663599289272    7.52754997800639   23.84023813130226
C        12.91623978309442    7.72031850689813   28.09240620099153
H        12.96825305336469    7.81180977901125   29.16721997285461
C         9.96982609606722    8.55762858132048   24.76408076550484
H        10.78839865055620    9.23102002787155   24.96773863398140
C        13.62588062302252    8.42569086729742   25.91154095884811
H        14.22177036638985    9.06719038768422   25.28122073096622
C        12.07823676238559    6.77864730185024   27.51762455702322
H        11.47888008333755    6.13316344118871   28.14249913419325
N        13.35202246563362    5.18269487613653   21.24974040280782
C        12.77494071555224    7.49011394932244   25.33082126063507
C         7.69432062388279    7.88357209466934   25.11781102785393
H         6.74606827393196    8.02050459635944   25.61639564313353
C         8.75475212504587    8.73028350370703   25.39791261867250
H         8.63324491307494    9.53214397977508   26.11111824314861
C         7.85027582752142    6.86843256949133   24.18970369227388
H         7.02348263735251    6.21196444999215   23.96108432623621
C        13.68839286210654    8.54136483285268   27.28776441113727
H        14.34329313362479    9.27506653367308   27.73335088446361
C         9.06313147471762    6.69036781780633   23.55002426107893
H         9.18123823663450    5.90017414634588   22.82434819197034
C        13.35201126846026    2.39911144958006   21.24980777421275
H        13.35199156436843    1.31993840859659   21.24986265617178
C        12.30867928139206    3.11258872889554   20.68252034926442
H        11.47036841148034    2.61093392709796   20.22636762009235
C        12.34712998098615    4.49511095883276   20.70354648385255
H        11.53144952623604    5.05967804655224   20.27305941271965
C        14.39535385807683    3.11260884528973   21.81705162556512
H        15.23366459407528    2.61097130223081   22.27322440441785
C        14.35691702948149    4.49512957212957   21.79595294220901
H        15.17261923680037    5.05971027757758   22.22638139491322
O        11.74503477348480    7.17383877296345   18.84676338955568
H        11.09835016700485    7.18273364283640   19.65573560701745
C        14.01313316364564    7.37373084587465   18.63204567738890
N        15.14411895033233    7.17816435341268   20.62266221262356
O        16.14181257674246    7.06608504403185   21.41964355630044
N        12.98088166099154    7.23227127992961   19.39855380209460
C        15.27468832555001    7.34981513376647   19.33613230292574
C        14.70125338867619    6.66293403550605   16.35676576734485
H        15.35060006295383    5.92510606176114   16.80475475792193
C        16.56736288663998    7.52749606426550   18.65924870946630
C        13.78775923192987    7.72035259447579   14.40709577732569
H        13.73575127187504    7.81187073043256   13.33228366758064
C        16.73416194885557    8.55760187756202   17.73543478270463
H        15.91557531019993    9.23098012317397   17.53179091226359
C        13.07812291002790    8.42568335945684   16.58797681948943
H        12.48223586347702    9.06717258311833   17.21831151763443
C        14.62574278292433    6.77864953020406   14.98185791308839
H        15.22509097423612    6.13316927101456   14.35697055177519
C        13.92904647218588    7.49007642118149   17.16867929324426
C        19.00967153460070    7.88357806263983   17.38169186635626
H        19.95793138349404    8.02054364328655   16.88312947748562
C        17.94923196917534    8.73028487574353   17.10160642993665
H        18.07072881951216    9.53216348537578   16.38841923124554
C        18.85372229926378    6.86840764203989   18.30976736065573
H        19.68052390282111    6.21194850003376   18.53838011022605
C        13.01561637828464    8.54139344844260   15.21175499023220
H        12.36071496110766    9.27510495796659   14.76618372024873
C        17.64086937932483    6.69031097284237   18.94943935693036
H        17.52277503873101    5.90010320479793   19.67510163062126

