38
CSD_code = VITKUE | q = 1 | S = 0 | Stoichiometry = C11H21ClN3ORu(1+) | MND = 9
Ru        1.09066839564066    3.37865553743648    2.25655027778935
Cl        1.98557461824103    2.57983377794784    4.28499696085482
O        -0.27326150788004    4.73105615831877    1.01421477494825
N        -0.07055214305206    4.68438333987749    3.72683333893139
C         2.78725448502137    4.22332704683208    1.16543080762984
C         0.41708918084526    1.33135051259179    1.79351800779567
C         2.51699966207341    5.01384438226009    2.30068787974087
C         2.61860185488757    4.74824764508221   -0.22981324321084
C         3.09888258421139    2.87560919539849    1.47968466482853
C         3.22731899334158    1.78990056512541    0.44016651037756
C         1.89445342344312    1.59230609682801   -0.29872194629322
C         0.74623303506174    2.00574448069702    0.58791724279989
C         1.12451645868601    0.11031131863394    2.29411319622343
C        -0.56924574957730    1.99991875739655    2.54418288045751
C        -0.91294347452570    5.56414443834994    1.66015320731457
N        -1.70670847114781    6.46290405284423    1.05864686638754
N        -0.84834702853721    5.62281460638921    3.02324720725972
H        -2.23776578344464    7.15335883513987    1.55823201820604
H        -1.76233441021189    6.45403483501943    0.05371234056693
H        -1.41262686649771    6.28118278814083    3.54655728406951
H         0.62728557882195    5.14421050170749    4.32283521266569
H        -0.64731870612639    4.08648754628587    4.32980617347099
H         2.21263831139805    6.04579161334185    2.13049409888696
H         3.12234069300504    4.86803227743660    3.19582047759164
H         3.31484506459105    4.25430536602005   -0.90355895033934
H         2.81764834720237    5.81757755242566   -0.24718751040252
H         1.60567096290967    4.59159621768652   -0.60032244173262
H         3.71870155106050    2.71582944800926    2.36362887067939
H         3.52679807459348    0.86620672899781    0.93397882030020
H         4.02173609682326    2.05031919638624   -0.26550089921847
H         1.87167302316292    2.18628800796870   -1.21183902647776
H         1.77590007263625    0.54463711423650   -0.59063067492192
H        -0.08438452765016    2.47341647905947    0.05205159306340
H         1.35500914979861   -0.55282978644740    1.46285862356738
H         0.49221143080463   -0.41909248449858    3.00270769268751
H         2.05287123758419    0.35750601011332    2.80739451135016
H        -1.41660691298616    2.44676378577598    2.01978566990790
H        -0.81222670420865    1.59042605518462    3.52166748224416

