84
CSD_code = VITQOH | q = 1 | S = 0 | Stoichiometry = C35H43N4OPd(1+) | MND = 4
Pd        3.22802606218168    2.53623711995540    7.32048146628143
O         4.57143199228410    4.32927950294158    9.84708300980832
N         3.18703164337365    2.46473194199658    9.33179999716276
N         2.04123557726071    0.93303988286013    7.22132982517769
N         3.30705551403657    2.65203656431233    5.32823451498828
N         4.42293552361193    4.14832330812030    7.47979849944290
C         3.81067128221775    3.29663809153623   10.17165391388085
C         3.56331148220912    2.96189593553345   11.54694088124976
C         2.74167426455864    1.86824019459759   11.51577255435132
C         2.50776888079745    1.56217761418820   10.11857055258986
C         1.73068277903464    0.53994119807451    9.62178327789180
H         1.23508780462242   -0.09482549885556   10.34055641016045
C         1.52274477980276    0.24412161013242    8.27224028429293
C         0.71168259993254   -0.85369517553815    7.79233331657011
C         0.75524856517072   -0.80252686276236    6.42806996182318
C         1.59197478317877    0.32912350726629    6.08611865327731
C         1.88690704043000    0.74230720875099    4.79471963616652
H         1.44908130671576    0.17533502505401    3.98710501189114
C         2.69013671580315    1.81841095012697    4.44515996325639
C         2.99066423748298    2.22777125231840    3.08877733779260
C         3.79519077033645    3.32741236430973    3.18540683134463
C         3.98031163467422    3.58005543613755    4.59795152526137
C         4.73892887007662    4.63159729164295    5.11835695285178
H         5.20024875006570    5.29761604200758    4.40505066977331
C         4.95252951318863    4.89616858136975    6.45252076367264
C         5.74537477928191    5.97778420016105    7.00219396569730
C         5.67765150776016    5.86286107340989    8.36389979298294
C         4.84739547813635    4.71672061723417    8.61253446898918
C         4.16129012608767    3.69715246346462   12.69598677365313
H         3.56003545113453    3.52908482986451   13.58977558617774
H         4.16079323418410    4.76652534662766   12.47595872082359
C         5.59853683385558    3.23843232705235   12.95573094862912
H         6.02256434036704    3.79569388989038   13.78606651892716
H         6.21827915050556    3.40254361357448   12.07734032369159
H         5.62328572284479    2.17985214126697   13.20150286575550
C         2.20708372271206    1.08397162273959   12.66098286869683
H         1.16976237548377    0.80500224767984   12.46724867164038
H         2.22894534055816    1.69855456926803   13.56130729513191
C         3.03956522626404   -0.18057002557457   12.89824828052571
H         2.62709491789531   -0.74542505046662   13.72942095138310
H         4.06679156630687    0.08187331440637   13.13638109452043
H         3.04504305010876   -0.81389960646562   12.01454629678065
C         0.02063576197148   -1.84609365802369    8.66282260836711
H        -0.78125492684111   -2.32489381137302    8.09989802575912
H        -0.43146516633542   -1.34005274785285    9.51828131366300
C         0.99293795843619   -2.92121987227809    9.15750433540152
H         0.47464785854228   -3.62442892471682    9.80354320721604
H         1.81473740668699   -2.47697033905636    9.71450917225629
H         1.41003969597742   -3.46980558878785    8.31707217062030
C         0.12737841876602   -1.72359115807208    5.44086742092327
H        -0.27053448592673   -1.15181438131242    4.60009875394294
H        -0.70575161864791   -2.24712572519811    5.91090724929504
C         1.13716947599355   -2.75422668946200    4.92608320322215
H         0.66578641142050   -3.40475411300598    4.19456096927351
H         1.50378761464426   -3.36702137887254    5.74542317656594
H         1.98911425747821   -2.26492570139495    4.45974238540850
C         2.52211094523890    1.52117794743872    1.86470237294663
H         2.56871059340572    2.20017685121682    1.01267947877962
H         1.48185406140725    1.21346190712012    1.98847345955957
C         3.38761992323614    0.29187020280844    1.57055650921920
H         3.01926520448843   -0.22033969058405    0.68600043391019
H         3.37302498942319   -0.40291164759140    2.40707688936925
H         4.41813077497972    0.58773813040112    1.39235685437437
C         4.42082223186632    4.11957190667140    2.08939107448337
H         4.37708329567534    5.18428078800315    2.32775840168765
H         3.86196479286476    3.96395888350546    1.16602677240523
C         5.87771395864221    3.70321524248695    1.86602428632183
H         6.32056741834818    4.30375110394011    1.07621780081813
H         5.93235798948846    2.65765904774810    1.57432810810252
H         6.46370412455743    3.83371636782963    2.77296748675556
C         6.50834715707583    6.96930973143828    6.19776431967564
H         6.70347280630433    7.85390035328185    6.80452358229477
H         5.91917375230310    7.27676221293693    5.33205229510098
C         7.84278516312166    6.38300975829146    5.72469021207223
H         8.37776707955268    7.11426289807911    5.12543321174683
H         7.68363687958530    5.48987535757334    5.12545194860158
H         8.46230127953719    6.11675740360781    6.57682990430358
C         6.31540497135205    6.66958909204651    9.44136042202735
H         5.60234616251265    6.80471502878997   10.25714409353594
H         6.58278384307384    7.65199317697961    9.05163753999503
C         7.56945799558783    5.97687959575878    9.98062924942966
H         8.01398369711847    6.57489420856659   10.77095880653684
H         8.30439358462280    5.84753695802104    9.19013917108499
H         7.32273146592929    4.99824061283029   10.38537008797939

