47
CSD_code = VITRIA | q = 0 | S = 0 | Stoichiometry = C10H30N5OTa | MND = 6
C         2.56678184547448    7.04499158898754    4.81747433682498
H         1.98927417266630    6.50260170426586    5.57610957712600
H         2.48612451862910    8.11785104049372    4.99581809805955
H         3.60819986213116    6.74464043057089    4.88361462617961
C         0.65697864528519    7.00215550880974    3.37802479631557
H         0.33949753391722    6.83090196104469    2.35272664657392
H         0.45987410635374    8.03992117710534    3.65010070676050
H         0.09201878125907    6.34201734099429    4.04746664377599
C         2.99812619527909    9.14981455797102    1.37528198318440
H         3.70002271402928    9.92423749537382    1.72045044441805
H         2.32441228972140    8.90192352664961    2.19131363805980
H         2.41000044240284    9.58623769198873    0.55387850272159
C         4.62924496751994    8.31027127895929   -0.10689661980070
H         4.11892144805526    8.81037093022703   -0.94339572082613
H         5.11339093273966    7.41279341198255   -0.48043004442285
H         5.40269652823802    9.00130057609757    0.26096882943433
C         4.04482070498355    3.94307335414641   -0.48960218258064
H         4.36976350312001    4.13690187442468   -1.52247654278598
H         2.96133358948263    3.92576400298638   -0.46189427825968
H         4.41675658891014    2.94653413058840   -0.20867822217797
C         5.99139385677917    4.93424046577337    0.35861578939094
H         6.38910063295713    3.96019739754838    0.67895477263792
H         6.39723717057591    5.71092818307910    0.99939555629475
H         6.34589174304407    5.10904976597644   -0.66820014733080
C         5.45819253068993    5.06800465459371    3.69025108589039
H         6.46941088897643    4.75092286890515    3.39073758666943
H         4.76759993489489    4.24088966405171    3.52316256530365
H         5.49756629704379    5.27578860631954    4.77214252449193
C         5.85542951215085    7.35078451260045    3.24549662140341
H         5.86664832611491    7.57519416377151    4.32489095757126
H         5.48932045851435    8.22660231117535    2.71503750127774
H         6.90307095857592    7.17304675689380    2.95034635612941
C         1.47442119838654    6.39597157402420   -0.75219204023019
H         1.48204999798235    5.66391395403962   -1.57469479663045
H         2.22731235621580    7.15158191207349   -0.95865906599372
H         0.48129049494129    6.87322221011938   -0.75648321057599
C         0.73709948666450    4.77193627420015    0.77769932744213
H        -0.27883613904944    5.19839678709004    0.74148765582521
H         0.90505233732521    4.33612274320306    1.76149675428546
H         0.76092456226141    3.96285802187562    0.02898136848219
N         2.09302120259819    6.73836427519218    3.46949655834860
N         3.69623310662830    7.96236591614169    0.94147098663969
N         4.54537694645541    4.95832143279929    0.41123765973119
N         5.01583617128930    6.21945992115150    2.94096649054948
N         1.74665205714954    5.77253894237582    0.52113881771632
O         2.33171105237934    5.38250787012368    3.20492670147513
Ta        3.42955348825712    6.09698523123401    1.65994040462498

