48
CSD_code = VITROG | q = 0 | S = 0 | Stoichiometry = C10H30N5O2Ta | MND = 7
C         6.31612225214277    2.17599588416395    1.18256000468523
H         6.02330602249092    1.65598638903986    0.25580540301851
H         6.25656868068010    1.47667603446843    2.01352415637151
H         7.36750418386593    2.48108853349567    1.05255237498880
C         5.48737152589784    4.21706868423658    0.33709188895342
H         6.50952695153219    4.56484941093410    0.11349264401940
H         4.87064247746696    5.08148548359067    0.56462884230294
H         5.10584025816629    3.74623827237465   -0.58450906721236
C         2.42966942748108    5.28145441036766    1.85415016074112
H         1.57497286570166    5.66598278142162    2.43240136164048
H         2.15967113786530    4.31886843175158    1.43359841811554
H         2.59918837754230    5.98480605982891    1.02579591654438
C         4.04561310662789    6.48996255949188    3.03078185087801
H         4.41904078605446    7.03065545456503    2.14705421941789
H         4.83676278040261    6.44680301202117    3.77130375427995
H         3.21754000473941    7.08428308331444    3.44413971835195
C         2.55135549793858    4.46105554324067    5.56861409467234
H         1.59905217080371    3.97211772749941    5.83310499044309
H         2.35431195140143    5.21232866344895    4.80966912850051
H         2.90910338858428    4.96833367825998    6.48032166669394
C         3.75642052997143    2.49083806654690    6.05093832920134
H         4.09612376589216    2.91549613962973    7.00977015905165
H         4.51702765281011    1.80865602139349    5.67786727448502
H         2.84203953872762    1.91490201599789    6.26907485905339
C         7.41174094933529    4.85118587858020    3.40910426181327
H         8.33366810368364    4.56619096394307    3.92755081030782
H         7.38115330139939    5.93360662901789    3.28208335064375
H         7.38731289842774    4.37175879991693    2.43558098778354
C         6.31373808645959    4.93559333380216    5.52831965043330
H         5.42484490493194    4.61890871951420    6.06589552917390
H         6.36243112255230    6.02477929425546    5.50978501801676
H         7.20043381474060    4.54109566235855    6.03612030857689
C         2.77911570242457    1.66762312606776    1.06427051817115
H         3.69912547564513    1.92296647471461    0.54681366767967
H         1.93359725643475    2.14149823058433    0.56472689658935
H         2.64768425770561    0.58035717233025    1.04794863337137
C         1.63443506020583    1.84380252609216    3.15267890074402
H         0.82103884721158    2.43185354306159    2.72692724118462
H         1.76580645130164    2.11034277195995    4.19664046623669
H         1.39575646439104    0.77711095809316    3.08096721289637
N         5.46051601756142    3.30780011288420    1.45530125717060
N         3.61013873968111    5.15323308572595    2.68334927258089
N         3.51849584434514    3.51884138313526    5.06400951378019
N         6.23245411847010    4.41184843420651    4.16052763467804
N         2.88198512783009    2.14892831433708    2.44624921610847
O         6.20094979009433    3.02955350229892    4.20926904115993
O         3.93761763538310    1.50673382279187    3.06845559039405
Ta        4.48518469499682    3.42235491924396    3.25669287130728

