71
CSD_code = VITSUP | q = 0 | S = 0 | Stoichiometry = C27H36N2O5Ru | MND = 6
Ru        5.55148913196473    2.59013417270307    3.20019404662908
O         5.02394534790305    1.78289718871420    1.37036487802541
O         3.80587695980318    1.63085893382064    3.84800834748480
O         6.70024910130801    0.88975992086071    3.60340252517495
O         6.32487988548486    6.69016711576800    3.88089587007934
N         7.03977854490443    3.56495996949611    2.44341161142036
C         5.72584432973375    2.54807708099186    6.02103721491989
C         6.13669969864881    5.34763467525394    6.33698894695561
H         6.94644897075152    4.97551277296335    6.96527568778253
H         5.19856581051392    5.17096035163646    6.85971967324512
H         6.26205781456586    6.41425422674243    6.17082956618807
C         6.19767201468470   -0.18741988309176    4.01736448396722
C         4.39419493505774    2.43269322957299    0.49705776897886
C         2.41946951463477   -0.12698381713479    4.59051103626225
H         2.43080710389399   -0.41378018452136    5.63983332981468
H         2.18417228598402   -1.00596179333689    3.99580254977724
H         1.65840705967165    0.63265471329789    4.43242561400524
C         8.00267096831323    5.81432725450615    1.92227512336163
H         9.01569022446330    5.45487301336262    1.76758995030630
H         8.03389921464100    6.74776237206317    2.48043567617792
H         7.54359770756293    6.02266042432707    0.95699986657293
C         7.17712459903638   -1.32410192729287    4.25278534785306
H         8.18305951919586   -0.99720251210323    4.00280473879440
H         6.91184936191455   -2.17964984237231    3.63648871869829
H         7.14426065721435   -1.62879881809449    5.29618803848509
C         4.10125250351239    1.70255672162602   -0.80193584895702
H         4.54206478392306    0.71016122910442   -0.76712626571666
H         4.50986000571628    2.25232838039034   -1.64631323981628
H         3.02681417506156    1.61131406448930   -0.94168529398223
C         6.44991735485956    5.46561439141672    3.82919340141956
N         5.93872377530975    3.37131365237273    4.90501242388048
C         9.27259577364125    2.59171531093051    2.02075126426808
H         9.20583116521808    2.22553413178758    3.04752529133049
H         9.84335141499664    3.52184348248047    2.02435890195659
C         9.97097523103967    1.56165188962386    1.13679539150419
H         9.44362314698807    0.60924033962279    1.21775318736783
H        10.99498484942728    1.41048294130266    1.48486501594486
C         4.00222977284650    4.58273417986876    1.71125050241620
C         4.45889087387717    2.45311163066412    6.59348521486213
H         3.65650769770906    3.05747927739044    6.19547532314722
C         4.23871507422636    1.56408149333273    7.62869980520039
H         3.25322156869269    1.48530235067397    8.06380391081425
C         8.56159062338778    2.27683232390291   -0.81958077458830
H         7.98088036246909    1.35326975182638   -0.78062432559410
H         8.58969002170854    2.61383495019239   -1.85791617599849
C         7.85127023154437    2.82107755036345    1.49086276394633
H         7.37796870659246    1.83051321198024    1.44958025957217
C         6.53626485493485    0.88310401886753    7.55014826389647
H         7.34603695352459    0.27415631945236    7.92454500739035
C         3.42823534042516    5.97965894517670    1.59790229368204
H         3.97618965013363    6.64248383202829    2.26415837830844
H         2.38581909313822    5.96644538358078    1.91268418855001
H         3.48153565734575    6.34768073516645    0.57787380227240
C         9.98076592827754    2.01108117454249   -0.32245642535812
H        10.57263271390506    2.92487942723836   -0.41684847260182
H        10.45284709568581    1.24463252417155   -0.94014151567569
C         3.95123659365922    3.75955728687758    0.58282496768723
H         3.46559338926805    4.16276258895355   -0.29389437877871
C         5.27336788197033    0.77753662965922    8.10844804717040
H         5.09530383709185    0.08301300002911    8.91580472101975
C         4.85721129247966   -0.45885630066529    4.29810171623074
H         4.63021587522279   -1.45754511494545    4.64115355031788
C         7.89335265697234    3.33972015151619    0.04968290160371
H         6.87570682358593    3.53560537570698   -0.29504801750416
H         8.47091559763677    4.25845789310070   -0.03096156354946
C         3.77801111200098    0.42545098991727    4.19820789256860
C         6.76873067371159    1.76608259927323    6.51172440648743
H         7.74668161028049    1.84865957456630    6.05863212470751
C         6.14109392357991    4.64068747940107    5.01358816184282
C         7.15947466753209    4.83130295700586    2.68891923241034
O         4.45770690308521    4.27426063586332    2.84622937334221

