55
CSD_code = VITYIG | q = 0 | S = 0 | Stoichiometry = C18H30MoN2O2Si2 | MND = 6
Mo        1.38220817220516    0.70285165935605   11.14830016235068
O        -0.08992492858557    0.43023991533310   11.84094983870761
O         2.17257680466994   -0.69028971362778   10.76622475239200
N         0.96001992648431    2.83559958075275   11.36250026405058
N         3.06037010275420    1.82780486921425   10.36493236038421
C        -0.17793219110449    3.26884844319380   11.90204081841147
C        -0.48437102919913    4.60470440057891   12.05820296450314
C         0.43751778111333    5.55931180397084   11.63288252659176
C         1.61967223644108    5.12724365732427   11.07231345704709
C         1.85802449560286    3.75339517972837   10.94762312433022
C         3.06062585086615    3.17687296881643   10.37616219194042
C         4.13627663939363    3.91931502182995    9.87584708134815
C         5.22840180762144    3.25986874189627    9.35572211774886
C         5.22047536001960    1.86553900896282    9.34765611858186
C         4.12494919926872    1.20303637435669    9.85821108851207
C         0.77493229616395    1.22367191490595    9.07427976169338
C        -2.31184667997119    1.10865364516848    9.66848664401556
C        -0.67410933820889   -1.54210932744692    9.18672294182429
C        -1.24212404635890    0.43550167436129    6.85361902608349
C         2.59982321179006    1.19790925971175   12.94127555534536
C         1.57674385831577   -1.57285412974357   13.95783229377603
C         0.17748009660321    1.07450033523707   14.94440731548212
C         3.02684186875793    0.37698852840756   15.90134680108746
Si       -0.85274995153775    0.29983308744959    8.73085849863608
Si        1.82479109230934    0.26287736031101   14.40602100122220
H        -0.85636231843804    2.48596908698245   12.21471826915882
H        -1.42160876823805    4.89869935727359   12.50206572337182
H         0.23163594321280    6.61348001195871   11.73940509609526
H         2.35314175165581    5.84093060263641   10.73350731101575
H         6.05446332796875    1.30992886838934    8.95013527647540
H         4.06666935962676    0.12063490918937    9.87686315850560
H         4.11194373554880    4.99685634061654    9.89654720063581
H         6.06990304691239    3.81025600980348    8.96390410808676
H         1.53539280576061    0.84200511826577    8.38643608854081
H         0.66381397143043    2.29043062890015    8.84655569484202
H         2.71103432323219    2.26151850914837   13.18327097936870
H         3.61210002971111    0.81213002906827   12.78771995093494
H        -3.26366723105798    0.67824950973622    9.37313375262601
H        -2.18464899032995    0.94100087569297   10.73321656031950
H        -2.36660939595886    2.18034453249919    9.49604729968137
H        -1.62422948798826   -2.06797481429596    9.16999828685110
H         0.00209817676222   -2.05679442623113    8.50978157441566
H        -0.25671597616654   -1.61382136905776   10.19098947157590
H        -2.15675567935568   -0.09399732984954    6.61141939022678
H        -1.37162117223442    1.46777624344211    6.54551971092260
H        -0.44818910799800    0.00947904676147    6.24959413644018
H         0.98622456630836   -2.10500337520460   14.69785613962020
H         1.06295101591109   -1.63088002902919   12.99838129601019
H         2.52653644433540   -2.09051831789626   13.85625406432896
H        -0.20303168696518    0.63509506810711   15.86123550717274
H         0.28154671383535    2.14370588990524   15.10933816578436
H        -0.56358221997367    0.92030192142260   14.16660788563319
H         2.63027438847731   -0.16015922412715   16.75561328567165
H         3.99607365256516   -0.05042318377998   15.66776170638556
H         3.18654614603682    1.40536524961755   16.20830420322901

