28
CSD_code = VITYUT | q = -1 | S = 0 | Stoichiometry = C11H13Cl2OPt(1-) | MND = 5
Pt        7.60115842215185    1.61739053980060    3.60319292598046
Cl        7.04200026444569    1.58824895758827    5.76762301242937
Cl        5.44069383962722    0.71229967129788    3.11085712488757
O         9.74651480325183    3.70737485040239    6.12873275965313
C         7.91059580424964    2.25284589090785    1.55224587584559
H         8.70776138255933    2.99811799084184    1.54695914364911
C         8.27632684194902    0.91082967220208    1.73229029348655
H         9.33212317462283    0.65248080073041    1.75552936629933
H         7.62469433894696    0.12321908738897    1.37278260654878
C         9.48819582212659    2.34536360584518    4.18357395811810
H        10.03970733491017    1.59229218668140    4.75515458858526
H        10.05450145333290    2.59729893631465    3.28203097785686
C         9.31466046019841    3.56152512317991    5.00110414527171
C         8.56321267393706    4.69425938456805    4.30552494147980
H         7.56887916805887    4.34020018101882    4.02014033748542
H         9.09948255783709    4.99966757374029    3.40834310425182
H         8.46463684375901    5.54362781651326    4.97780139008646
C         6.68502691636534    2.73644201205268    0.91080673153079
C         5.76297454915868    1.89566380917403    0.28206367372086
H         5.92349317644926    0.83060433261300    0.27378133819921
C         4.63095568145403    2.41374386128893   -0.31489388910570
H         3.92333190755087    1.74541020297414   -0.78569192198580
C         4.39103205163752    3.77813216104746   -0.30991581846639
H         3.49944369283268    4.17764360830411   -0.77392613571506
C         5.30215001474219    4.62684538442018    0.29589033093981
H         5.12539707551620    5.69428208113316    0.30581660153655
C         6.43653016087624    4.11236284616439    0.89201852298910
H         7.14031958745326    4.78242743180611    1.36746401444238

