18
CSD_code = VITYON | q = -1 | S = 0 | Stoichiometry = C5H9Cl2OPt(1-) | MND = 5
Pt        6.97140997981568    6.43149167448815    7.00325715225538
Cl        6.66998454652796    4.55877990940028    5.80359606869958
Cl        9.12744140477231    6.66225033340255    6.01857955851621
O         5.35666887388537    6.16285005204796   10.17297128868044
C         5.03950351745592    6.15849364012755    7.81850163632642
H         4.54519318611144    7.12652022945513    7.92565802144811
H         4.48403651419070    5.50339720208020    7.14819384455941
C         5.28634900890527    5.53923778570336    9.11558826904150
C         5.43246646455753    4.02482770348222    9.11099110110472
H         5.90107401143653    3.69086130196900   10.03466611809181
H         6.01766969191331    3.70343078155861    8.25302067174219
H         4.44105395139912    3.57820465459065    9.03582325605787
C         7.57149216815029    7.77987694864937    8.54211776144385
H         6.98607210069941    7.62473454882080    9.44186317314211
H         8.64828413046457    7.70710851816610    8.65839227444502
C         7.04569402179619    8.50487572096389    7.48181789149716
H         7.71641662584406    8.99692569609229    6.78373135119095
H         6.05448980207451    8.94163329900277    7.55853056175740

