81
CSD_code = VIVJOB | q = 0 | S = 0 | Stoichiometry = C39H30F3N3NiO5 | MND = 4
C         3.89334472879044    3.60599123640460    9.91857730181394
H         3.71192973343516    2.73573852472381   10.56393849117013
H         3.15732921225976    3.59529621124738    9.10868735947191
C         3.61288239565205    4.89392697408371   10.70674363349117
C         4.25464907575240    7.19088376701997   10.80240840676434
C         3.83845848649188    7.38526981793121   12.13303781100626
H         3.54171099074123    6.52865941694969   12.71303323072551
C         3.79546846558291    8.63588242903816   12.69723064599074
H         3.47307167972914    8.74308188791226   13.72266568210340
C         4.17145381437148    9.76210096515551   11.96901829756638
H         4.15142559040480   10.74012890225243   12.42526199771568
C         4.58223065038642    9.60997264097854   10.66796262895617
H         4.91628962849097   10.46773696686766   10.10307028148561
C         4.63525010865910    8.34516650776236   10.06358127647577
C         5.18366014699538    8.23234806111175    8.72461788758109
C         5.01507918842277    9.34174316970268    7.77216383821714
C         3.86066902054612   10.12118843387176    7.75432331538590
H         3.08754091262151    9.95064507258096    8.48816231243262
C         3.66643247848629   11.07465375350578    6.77417632973180
H         2.75106447066754   11.64495477478568    6.77556757760165
C         4.63197711243287   11.27200872574671    5.78924748373710
C         5.79286751604536   10.49072269828478    5.80518840535753
H         6.52762608119770   10.65102946407889    5.03249206192499
C         5.97250507662819    9.53209640774157    6.77094267459579
H         6.85727224339292    8.91396702029060    6.77264441359587
C         3.37397668191743   12.95521323830922    4.67407940509429
H         3.23624184585872   13.59718526505398    5.54974532041781
H         2.48681290840799   12.32993631300619    4.53564647709850
H         3.51809326052920   13.57699280836104    3.79198980572653
C         5.35776254872707    2.73318647706800    8.16101353644523
H         4.36976734413233    2.44370593793856    7.79436299417438
H         5.91021021542269    1.81221277607423    8.37421464420339
C         6.02710622491343    3.50707751980562    7.01625258208342
C         6.85391644529519    5.57296486389735    6.35492171431239
C         8.17578224872812    5.93992761381549    6.12495448919779
H         8.94510430690744    5.55854743500566    6.77935317473399
C         8.49281210582620    6.77888440365746    5.07362920072213
H         9.52177214180717    7.06449060567333    4.90902813403260
C         7.50234930968468    7.24823636536008    4.22161034806257
H         7.75976272800579    7.89658513552248    3.39788130850653
C         6.18548726641303    6.88699878020249    4.42875656672958
H         5.41011187384167    7.26958050654544    3.78162801208101
C         5.84512434922656    6.06634574201848    5.50035584523505
C         4.44295488907146    5.73966801438989    5.79478777456805
C         3.57610110138490    5.53117163952138    4.59269825353720
C         3.83268220159731    4.41263989785323    3.80664329802214
H         4.65925257857794    3.76864811512745    4.07116601568941
C         3.01951859479326    4.12854116920009    2.72372963752162
H         3.21802654922951    3.25519999070802    2.12158538859782
C         1.95693573871751    4.96080089452996    2.40921549906179
H         1.32535617119976    4.73966543856970    1.56268235618242
C         1.70137491891147    6.08411727728034    3.17610272584575
H         0.88287959137679    6.74273884270944    2.92929716727145
C         2.50705383718722    6.36539876156181    4.27113615608519
C         2.26949560011697    7.59786528681336    5.09744918410668
C         6.24979916731008    3.22032195885866   10.35876823314819
H         5.90042330053033    2.33829835270772   10.91341266173974
H         7.17163660754437    2.96621794001146    9.82822457952452
C         6.53463953218554    4.36238401370372   11.29903688925528
C         6.02248733796103    4.39605925603702   12.58732264102668
H         5.43435957720344    3.56848672717573   12.95692679170628
C         6.24953198611812    5.49562784559655   13.39904780907402
H         5.84229527824032    5.51573999898044   14.39866911801101
C         6.98259414811444    6.56995264927646   12.92709505615279
H         7.14362971969743    7.43229014828131   13.55656674561657
C         7.51056300590249    6.53867921599239   11.64638045967458
H         8.09188439593302    7.37215530632968   11.28072318410893
C         7.29331741859419    5.43910197691423   10.83242913902377
H         7.75250489033163    5.39248979089632    9.84476143345361
F         1.75479284125169    7.34544441556711    6.30795448337923
F         3.40540976905557    8.29287571668777    5.30018715216587
F         1.41976963000768    8.46171906523327    4.51005386897295
N         5.24047765843725    3.59774129873304    9.34566811135315
N         6.50088200924916    4.70444424443711    7.39136000473577
N         4.29573775133565    5.95418660979986   10.21145146093912
Ni        5.46792053886152    5.45715400312424    8.80653928912663
O         2.79370798612386    4.88502871343683   11.60853950835366
O         5.83054877595010    7.24091488607204    8.33600813668043
O         4.54159748550921   12.17415804826863    4.78376058235758
O         6.09054505219455    3.03483409856531    5.88689202878272
O         3.98632975041574    5.57937277364968    6.91496027142707

