37
CSD_code = VIVKAM | q = 0 | S = 0 | Stoichiometry = C16H17MoNO2 | MND = 9
Mo        1.72394105706526    3.52157947540004    2.81329759368647
O         0.07731500779104    4.39920374719822    5.24541763936568
O         3.04875914763719    5.87929233109156    4.27847379724616
N         1.25892718653377    5.02242398002132    1.28409673337027
C         0.66869706676297    4.07603823446940    4.31338518124934
C         2.57286693999936    5.00212398894172    3.69652855318211
C         3.00770721288432    2.07519812307089    1.44974457757728
C         3.58009350618243    2.05350347968387    2.72774608957908
C         2.61154450008265    1.56776615854667    3.64289679979716
C         1.44287885918526    1.24613241892959    2.89753214888546
C         1.68239264066057    1.58408652728249    1.55138039074819
C         0.06358581393300    4.36976300556030    1.67386493500723
C        -1.01491146125610    5.19487652839739    2.23995869354956
C        -2.33975522191316    4.77551785105067    2.11236507836105
C        -3.37724526326083    5.50906645224478    2.65490885217174
C        -3.11620036893616    6.68835261098321    3.33071127279431
C        -1.80660510373280    7.11841181737063    3.46856962489143
C        -0.76648353872965    6.38261356433184    2.93495854566873
C         1.71272722409875    4.90035852020330   -0.09412328704945
C         3.13537149988132    5.42663450981013   -0.21958646212956
H         1.25758772625363    6.00953837488572    1.54266463350498
H         3.53722146822889    2.27488054451737    0.52634649509660
H         4.61242776366732    2.27458896987427    2.96551688109894
H         2.81075256460547    1.26382313486210    4.66487952565723
H         0.58786029245632    0.69999146800776    3.27449873745038
H         1.04842705396435    1.31453134459952    0.71365900053309
H        -0.32050053646940    3.71710268457564    0.88028420643223
H        -2.55249603603681    3.85469005857584    1.58698128842954
H        -4.39393104436792    5.16040286529553    2.54717376878859
H        -3.92470285606378    7.26475722724766    3.75409580081935
H        -1.59203513163521    8.03103782327793    4.00468392301700
H         0.24926238520268    6.72857438964378    3.09809409619455
H         1.67436626033474    3.84511592467602   -0.38433928476724
H         1.04461234425043    5.46548360641644   -0.76124990517791
H         3.52069517707148    5.25216129358783   -1.22048319078656
H         3.78160416581395    4.92463187387961    0.49996137850745
H         3.16684169787018    6.49574509149506   -0.01959411275861

