35
CSD_code = VIVKIV | q = 0 | S = 0 | Stoichiometry = C18H11FFeO4 | MND = 7
C         3.21540389233634   15.38878093634142    5.50471737980739
C         2.11177925628268   15.08304713293412    6.35934449724575
H         2.21515064761332   15.07993529810680    7.43533418794821
C         0.87045676460154   14.81499489409091    5.70256503132788
H         0.65286088917849   15.44503359028629    4.83985361763390
C        -0.31902498554657   14.39155139104126    6.43764727231182
C        -1.58821862674618   14.59029199528539    5.88652624536766
C        -2.75146351882798   14.21116352900090    6.52405457768487
H        -3.70085520489861   14.39375320480174    6.04576697139515
C        -2.66916630132946   13.60174078572736    7.76424016751851
H        -3.56958283070999   13.29834399480722    8.27510840981276
C        -1.42777436213031   13.37929561708458    8.33901947884640
H        -1.36030946822020   12.89726865878177    9.30251200006497
C        -0.27353370202227   13.76446121887177    7.68607064133149
H         0.68461535251455   13.56627279039860    8.14225009020905
C         4.52568748165999   15.85267953782042    6.01299023244177
C         4.67204791964592   16.43476263418798    7.27035795844629
H         3.81609798319133   16.55934908002656    7.91661110459494
C         5.91280307326487   16.88083587507348    7.68720121471660
H         6.01891445739397   17.33432486511505    8.66170172092888
C         7.01651121449568   16.75304246700600    6.85980096353100
H         7.98310848305610   17.10155791177511    7.19184925762692
C         6.87658982394736   16.18508408544050    5.60316143462920
H         7.73379096794803   16.09018226549132    4.95348251587628
C         5.63945422549431   15.74171014301695    5.18045462049256
H         5.50932899439372   15.29958418694573    4.20329168954686
C         3.95138071818192   12.58340685987344    4.74673021465366
C         1.39585595408256   12.91263339582519    3.54120743556159
C         1.92335814239710   12.03469292748927    5.96085858268831
F        -1.68637935942193   15.17878539490108    4.67326814605752
Fe        2.38376599119880   13.40243025569560    4.97330080360327
O         3.02577921429350   15.25487080039483    4.24147212174585
O         4.90125032492981   11.97461717169609    4.55719335687491
O         0.80637975942168   12.53222107497768    2.64460661789243
O         1.62303682833079   11.10989402968799    6.56704943958420

