36
CSD_code = VIVNOF | q = 1 | S = 0 | Stoichiometry = C11H18ClN4OZn(1+) | MND = 5
Zn       -1.45528758159412   26.72075392641429   11.82488354929593
Cl       -3.53347840555018   27.11306807691044   11.94264314487223
O         0.42433874371616   21.70338710455726   12.34535233115673
H         0.00785229292827   21.59494068993934   11.48257423560030
N        -0.48873345525515   25.17424252836452   12.79367561477853
N        -0.34425203179260   27.74274993260731   13.43923829016803
H        -0.77890784387484   28.60353442708714   13.76333285162944
N         0.00020130974907   27.75023339620844   10.62268812618219
H        -0.40650841496512   28.30197709348480    9.87034659989090
N        -1.21355316966937   25.17995986855261   10.19979078548892
H        -2.09847075564419   25.09493222053588    9.71099036659764
C        -0.34296085516397   24.00046317742700   12.19755330138568
C         0.25738961084207   22.92710518061994   12.86861680811761
C         0.72508018537452   23.15118144734552   14.16741684303017
H         1.19335859638183   22.33276046306304   14.68992753442256
C         0.58388150103562   24.39629025606931   14.74612676637185
H         0.94558365289947   24.58253344370598   15.74409228349232
C        -0.04175879339345   25.40293703281023   14.02154776342058
C        -0.26398681277106   26.79574830504269   14.55062959862260
H        -1.21823943713307   26.81032516080155   15.08672429395470
H         0.53203058052819   27.05749542881545   15.25918026286594
C         0.96734218298102   28.05365371066705   12.86776695913586
H         1.53553738568378   27.12331556620844   12.80635757799149
H         1.53092417720223   28.75707329679680   13.49083717586853
C         0.79586742793860   28.64468873944600   11.46861903539640
H         0.26227756445155   29.59394431040505   11.55029226370115
H         1.78174499521033   28.83599892708829   11.02984962274419
C         0.75670639067296   26.65712355318119   10.00875463811544
H         1.26838497975827   26.10160609275867   10.79579002775373
H         1.50489836116946   27.03148933581204    9.30017473907661
C        -0.21584337337743   25.73072747039827    9.27874160921755
H        -0.73808051204434   26.31056372453343    8.51397233701402
H         0.34943900990634   24.93733922581331    8.77542842000355
C        -0.88013124766335   23.88152126682996   10.78652012342718
H        -0.14359150352979   23.35740427748468   10.15942075973404
H        -1.78885475500797   23.27053134221385   10.82974335947547

