67
CSD_code = VIVNEV | q = 0 | S = 0 | Stoichiometry = C37H20Br3FeN5O | MND = 5
C         7.13389213586706    3.54155747334324   12.98194118525371
C         6.34973533935463    2.93334925241117   13.98762157718631
H         6.62613122009904    2.82650582032534   15.01855745246883
C         5.17699181146420    2.53602084347571   13.39418105545354
H         4.34229283052322    2.05760849530960   13.86894846105512
C         5.24619024490080    2.89700423419173   12.01897356589493
C         4.29788014059892    2.80816334789909   11.00007446700905
C         4.52968111790500    3.36981332048880    9.73557311211362
C         3.61532190844253    3.35151092095087    8.63910678545206
H         2.65375633479834    2.87676720243665    8.64535850137639
C         4.19161714275176    4.03396357421055    7.61344064258026
H         3.77651930071110    4.23113328638798    6.64451177847220
C         5.47664590913546    4.46168203883074    8.06188002168820
C         6.38713818996082    5.22876896850021    7.33213744158865
C         7.60420164201939    5.69022014993971    7.83913126060363
C         8.54034166829245    6.52350046383303    7.15802984356425
H         8.42642809976465    6.89745555247993    6.15962741423094
C         9.58024693356570    6.73744730845732    8.00848121813174
H        10.44948043631015    7.34111404295409    7.83439722895877
C         9.30207490055624    6.02781175799075    9.21537344476718
C        10.10543132273186    6.03838421914478   10.36620780174691
C         9.69984441980126    5.40571574556069   11.54068543025938
C        10.29349687822614    5.34749632680236   12.83295541094117
H        11.23107081857360    5.79057314264376   13.10744287997055
C         9.45402731040113    4.62406390686398   13.64396962114442
H         9.59018148258493    4.39731665734589   14.68355200552083
C         8.35415377896088    4.22947350613271   12.85016933741311
C         3.01276894318765    2.14971117932805   11.28846843374358
C         2.98973227434630    0.83631403369807   11.75247872207670
H         3.91842542514369    0.29841565372159   11.86861878634932
C         1.79295926433642    0.21056516904295   12.04571234639860
H         1.77841755507150   -0.80958210473030   12.39743363749996
C         0.60830019707092    0.90881647768152   11.88295615838877
C         0.60551726834180    2.21849162556316   11.43314464337699
H        -0.32570225220616    2.75216660703231   11.32001090776077
C         1.80761348519087    2.83215526327758   11.13643780655099
H         1.81496443540326    3.85872056768439   10.80218768348331
C         6.03364134158558    5.57737200555667    5.93959266041115
C         5.88562953590516    4.57304054638549    4.98658629555795
H         6.03639972500625    3.54311158657179    5.27302090036969
C         5.56321972767216    4.88202356620001    3.67854169551408
H         5.45572737284143    4.10196309347225    2.94063126753708
C         5.38039202006784    6.20801758003924    3.32387416488329
C         5.51549581594249    7.22346963775593    4.25539750902180
H         5.36461982075491    8.25160135135497    3.96410890862571
C         5.84431924515591    6.90295403702917    5.55942061107914
H         5.94304168953390    7.68740994498291    6.29462905769278
C        11.38920910977689    6.75984588711128   10.34479743781442
C        11.64217183830839    7.77891170052141   11.26022583862979
H        10.87890988172840    8.05699369052183   11.97115328446632
C        12.84848055853686    8.45322841434375   11.25256722272523
H        13.03846748021703    9.24674031885581   11.95895446843255
C        13.81331861100359    8.10053262672731   10.32420553015707
C        13.58696462982718    7.08905917071193    9.40583234164650
H        14.35045174274286    6.82354710082413    8.69082334511778
C        12.37502796181986    6.42517415371127    9.41889280676510
H        12.19387243521753    5.62701081015131    8.71489741115592
N         6.45269469640655    3.50500212733529   11.80110406608346
N         5.66727175539634    4.04677187620798    9.35868709322045
N         8.08484773208141    5.39812209459453    9.09345958391101
N         8.52517379863174    4.70256268018361   11.58233306752907
N         8.04692085897317    2.74864644303766    9.71038508815039
O         8.54651616451756    1.78336053030255    9.27856163876254
Fe        7.36291040515569    4.05547600391941   10.25318251677378
Br        4.93363655572739    6.64288461446919    1.52311325922813
Br       -1.04619146583688    0.05554337446165   12.28988495553755
Br       15.48018904111542    9.02382700145026   10.30965790272579

