53
CSD_code = VIVTAY | q = 1 | S = 0 | Stoichiometry = C25H20ClN6Ru(1+) | MND = 9
C        -1.56027624271114    3.39393764215484    8.46471560594882
H        -2.34494939668046    2.65063212098896    8.40712677536914
C        -1.47496170425857    4.40280580826723    7.52251703491168
H        -2.18885756497518    4.44206227522000    6.71631743949066
C        -0.47525655519292    5.36279485635085    7.63900467028999
H        -0.39910977000241    6.16569785458171    6.92351083565248
C         0.40972341991533    5.27718410205860    8.69648254774328
H         1.19263564193501    6.00205107531261    8.85406676246626
C         0.26267415207587    4.23094460281286    9.60341364631672
C         1.05727552483089    3.99926780819419   10.77184465358347
C         3.98273696930763    5.81279408860677   10.83822887219831
H         4.61886827652082    4.93452943454272   10.94232490274240
C         4.63540187348600    7.05597478618211   10.52156622217860
C         3.90918495457544    8.24766404546480   10.40878046558110
H         2.84178966071874    8.22071905822689   10.56123959665080
C         4.55856300746697    9.42877424969418   10.11598712281698
H         3.99732035333630   10.34658172128673   10.03022152493951
C         5.93515520601183    9.44049485869490    9.93493672111104
H         6.44025749292413   10.36648345415551    9.70640784297659
C         6.66474075662614    8.26624221680345   10.05041250890354
H         7.73500832916176    8.28051453635961    9.91237746465029
C         6.02246157062073    7.07934330350663   10.34236860376696
H         6.58759063888060    6.16344600244167   10.43464659307883
C         2.38062244336376    3.86433370208350   12.48243760449260
C         3.33972583213790    4.20137700287559   13.51979961264953
C         3.25337107771012    3.57101166269103   14.76218446869043
H         2.49278665314623    2.82621075202542   14.92583170926651
C         4.15019101349452    3.94233068227501   15.74882151689140
H         4.11861061395353    3.47208465288989   16.71983919624664
C         5.08346489101288    4.93050932104359   15.47305045164409
H         5.79667805622613    5.24872222510597   16.21586815160620
C         5.08420243667821    5.50017257604810   14.20686334031823
H         5.78938799096366    6.27311052864352   13.93260454779592
C        -1.06073466107623    0.00519985236668   10.02263904470690
H        -0.74254574199170   -0.32068041569374    9.03825200917276
C        -0.18234750131572   -0.10449559219273   11.11603063486487
H         0.81322283495675   -0.50933322342173   10.97596970910004
C        -0.63724378189960    0.21707280839046   12.42089984326673
H         0.02273860481059    0.07747506017585   13.26891168435278
C        -1.94545657054857    0.66910426356883   12.61433576946721
H        -2.30709053496042    0.88508714931887   13.61343279736404
C        -2.84347451085156    0.74912115886854   11.51079844090146
H        -3.87971406601356    1.01880321580316   11.68324322028976
C        -2.41078684525724    0.39693833356137   10.23193645183671
H        -3.11455667985824    0.36554902260949    9.40788435777388
Cl       -1.96607985914211    3.92782526280029   11.96642415000468
N        -0.71106431542812    3.28990828151704    9.48359043229536
N         0.71277685900480    2.95486813049035   11.52853409335319
N         1.50306590009859    2.87842299103564   12.57264057758401
N         2.13813858117953    4.59022177793036   11.34032054787176
N         2.70547934811452    5.73892904949107   10.91450446957711
N         4.24774402769058    5.13960096726224   13.25474335237694
Ru       -0.95078868905662    2.03257889806820   11.06080940262173

