75
CSD_code = VIVTEZ | q = 0 | S = 0 | Stoichiometry = C38H32FeO2P2 | MND = 8
Fe       -0.90546946072145    0.82082838513493  -11.09294500928912
P        -1.65362162708158   -0.35468063297789   -9.45283574580067
P         0.46844878164988   -0.18756816521120  -14.00315247345375
O        -2.58992958321895   -0.53733832439305  -12.99309736770354
O         1.36737294163628   -0.29369864682147  -10.37395066200904
C         0.55388855070155    2.58157522308721  -11.28550736341805
C        -0.06942747760302    2.61757052938057  -10.03516029669226
C        -1.47700483905827    2.76422943731682  -10.24264460636122
C        -1.70631197340586    2.79301710737648  -11.62483893940627
C        -0.45483336660707    2.61358617820438  -12.27587857867614
C        -1.86953785784284   -0.03778115965553  -12.24478203449050
C         0.54531580416086   -0.37457725060013  -11.25984653813358
C         0.76339644645281   -1.22274331356021  -12.48154805523908
C        -1.24143288325120    0.27376060149997   -7.79042804263966
C         0.11291256017607    0.42924742200294   -7.49439952281183
C         0.50150958794788    0.94740775192557   -6.27371155754866
C        -0.45491185803819    1.33251091029489   -5.34641201053548
C        -1.80006569366587    1.20325777806278   -5.64706222336659
C        -2.19686618159779    0.67887665120315   -6.86580293762144
C        -3.46732812026422   -0.54527024487593   -9.36411510803472
C        -4.26493932769202    0.30674926653176  -10.11756235214614
C        -5.64300217817506    0.19460932070589  -10.06940625153033
C        -6.23027637114884   -0.77084108397363   -9.26834695453802
C        -5.43882470530096   -1.62363293338787   -8.51429065796542
C        -4.06153707603245   -1.51377734875337   -8.55939970412061
C        -1.16104686075181   -2.11070226538958   -9.35901810624993
C        -1.58063524832441   -2.90979504645826  -10.42221357581097
C        -1.22270306276709   -4.24204449046365  -10.48184023798660
C        -0.43664668625716   -4.79140100983836   -9.48004654655077
C        -0.02075358959255   -4.00463555868861   -8.42040154628882
C        -0.37887150519998   -2.66813793892564   -8.35605595109471
C         0.73873801160922   -1.54947860921600  -15.20856448909067
C        -0.39988068687102   -2.17285360851343  -15.70856858930829
C        -0.28866369501016   -3.22798364577908  -16.59528625957343
C         0.96365616172980   -3.66488736427067  -16.99423460469731
C         2.10100569854115   -3.04576107351604  -16.50200620805026
C         1.99286676759920   -1.99270429620925  -15.61194408879433
C         2.06754132937826    0.68573417888353  -14.16853685753815
C         3.00062046869798    0.83397814775884  -13.14981957387084
C         4.14715392882416    1.58095044073819  -13.36464150792422
C         4.37043720875737    2.19018418763346  -14.58708062263229
C         3.43645208281832    2.05867947655635  -15.60303188643120
C         2.28976378078100    1.31955715850872  -15.39038604532042
H         1.61363770612407    2.54049239709427  -11.46887110428906
H         0.42549405178120    2.67571556054250   -9.08087784265818
H        -2.20049669830346    2.96326423448665   -9.46643831294250
H        -2.64551483407468    2.98215233660900  -12.11710947899948
H        -0.28656695128371    2.69611428262328  -13.33781854249538
H         1.75132651907500   -1.69733616442008  -12.49609321124708
H        -0.00885112553710   -1.99678887700446  -12.50336644957362
H         0.84727044189260    0.15076251344732   -8.23738028581005
H         1.55167943835177    1.05968930113589   -6.04560628891149
H        -0.15138977261235    1.74147102567728   -4.39378018031966
H        -2.54641159782453    1.51513729800613   -4.93063898520917
H        -3.24910037563069    0.58672533969280   -7.09578229225259
H        -3.78652825699895    1.04609293689754  -10.74547080311223
H        -6.26007021986348    0.85630970294912  -10.65937448396058
H        -7.30586370046011   -0.86225066822995   -9.23247518756127
H        -5.89827098006040   -2.37667260842213   -7.89054511984367
H        -3.43946873415948   -2.17683721769438   -7.97291071969132
H        -2.19755159176827   -2.47073544236132  -11.19531111319080
H        -1.55193126431302   -4.85388045759598  -11.30914875973722
H        -0.15046683675771   -5.83169679552226   -9.52725777646724
H         0.58871196097141   -4.43203568259970   -7.63738282137276
H        -0.05052231699045   -2.06353316717134   -7.52345395875247
H        -1.37268609901560   -1.82019071550990  -15.39400882050545
H        -1.17719992225123   -3.70837048783498  -16.97898727243172
H         1.05439070353593   -4.48623107005332  -17.69006304036365
H         3.07834865173959   -3.38609408742547  -16.81331054170502
H         2.88381525952174   -1.51076694803230  -15.23433988354348
H         2.84285146307454    0.37336187862622  -12.18731434874363
H         4.87078273937046    1.68757730051527  -12.56871825588923
H         5.26747765823243    2.77025396855003  -14.74788877785820
H         3.60310355850661    2.53689437037398  -16.55759130025493
H         1.55264292975242    1.21458980124600  -16.17658234956496

