70
CSD_code = VIVXIH | q = 0 | S = 0 | Stoichiometry = C27H30BBr2N6O3V | MND = 6
Br       12.91488503509225    0.42016251779159    6.68297060060732
Br        7.52855793000168   -1.65989801577105   -3.72883145849033
V        10.18795354127612    3.83545443186198    0.77907265797809
O         9.46480710426146    2.41810669268732    0.20332386256304
O        11.58300375669239    3.17807110199400    1.53909898946722
O         9.26595065868795    4.18652745776239    1.95006858594661
N         9.00073344191531    4.86490217140602   -0.56101508077949
N         9.47551685351299    5.63412701271821   -1.54930140083146
N        11.09916755684311    5.62440487254075    0.83110145688897
N        11.43417179692107    6.33947522213700   -0.25269646401490
N        11.51839340587077    3.56243047276538   -1.08221895910491
N        11.66390384085986    4.56830520702453   -1.95749499822213
C         7.67701685202777    4.79239318380704   -0.68699529754655
C         7.29267079487671    5.54253899250022   -1.80179306305853
C         8.46374787294687    6.06210952205762   -2.32516625996980
C         6.80093330957568    4.02308341698277    0.23510755121112
C         8.64314193680020    6.93043189738727   -3.51789020847289
C        11.56515608560244    6.25939881797317    1.90681456735441
C        12.22861116912497    7.41590339899166    1.49225079429758
C        12.12493105529077    7.43281751942825    0.11252921192865
C        11.36751797162336    5.79071303110101    3.30359842077432
C        12.65594429976776    8.44069198135755   -0.84194207739561
C        12.19412388834255    2.51928496316628   -1.54726036704787
C        12.79358179108485    2.86562262838091   -2.76599710048882
C        12.43345082932693    4.17933828912325   -2.99420659887514
C        12.27666858585455    1.20247978236448   -0.85637473835971
C        12.78606628658538    5.06163817523387   -4.13738204416093
C         9.04799066967528    1.54637462618383   -0.66247351798331
C         8.90271463154175    1.86196271241326   -2.02680530721967
C         8.45145266090380    0.91751170528015   -2.92407581678470
C         8.14448188039184   -0.35899039924625   -2.48157373924202
C         8.27879601340531   -0.70254683545698   -1.14584776975490
C         8.72066959737933    0.24148704324024   -0.24472580951500
C        11.86917479631218    2.58681815444371    2.66578833843261
C        13.20653728067806    2.43687631179235    3.07693986436921
C        13.51328673967308    1.80042162329034    4.26111773564250
C        12.48964205024140    1.29952798744660    5.04881652170229
C        11.16205451323817    1.42483977527478    4.66787853608730
C        10.85236388818459    2.06237673023769    3.48548594385615
B        10.98484989442456    5.90302680845361   -1.65485073508781
H         6.29800399932854    5.68637608807651   -2.17243561626847
H         5.84771594178800    4.53341761120657    0.35606105738910
H         6.60859668707050    3.02522450269936   -0.16362268357572
H         7.29315814696385    3.92337151466107    1.20408832938648
H         7.67641804602576    7.12394135009400   -3.97432578272835
H         9.28941447785513    6.45041974170833   -4.25067613876827
H         9.09747773108127    7.87904627451576   -3.23802841380209
H        12.71442759320722    8.14027385814368    2.11431790379691
H        11.32766515511831    6.64430827895386    3.97709292855643
H        10.43739175858295    5.22331769999328    3.36916442910218
H        12.19045018508200    5.14511538437665    3.61430693109432
H        11.84522052474290    8.91411794966878   -1.39276961961160
H        13.20205163110064    9.20437410314630   -0.29517203244832
H        13.32591272324890    7.97381696506722   -1.56140978204060
H        13.40337908276588    2.24106683276700   -3.38703764769663
H        11.81852676471440    1.25522136710999    0.12965049207958
H        11.76666681297553    0.43621990391731   -1.44232217718682
H        13.31915265109271    0.90460003249401   -0.74667004774003
H        13.33776698620396    5.93547470325924   -3.79440376588711
H        13.40257197537504    4.51171858092851   -4.84322770782638
H        11.88996253995951    5.40918752282541   -4.64887104270179
H         9.14371488539535    2.85846272018786   -2.36800036237732
H         8.34049077768499    1.16926426112914   -3.96812105557829
H         8.03658997825644   -1.70117135633215   -0.81514135584514
H         8.83659476045202   -0.00593219099889    0.80136406926464
H        13.99047927026792    2.83707033654095    2.44952230238221
H        14.54103680776613    1.69168164617884    4.57339115844579
H        10.38027622803099    1.02426372449735    5.29577823406440
H         9.82343505354415    2.17898331234571    3.15981542632814
H        11.22652855750204    6.72046629274640   -2.46796285652120

