66
CSD_code = VIVXAZ | q = 0 | S = 0 | Stoichiometry = C28H31Cl2O2P2Re | MND = 6
Re        8.47646691277131   10.08976961171674    2.72635811534270
Cl       10.48759266042845   11.21967539393880    3.33805150829146
Cl        6.53170269041816    9.03530711456379    1.81520151168340
P         9.82528422410589    8.60315798420164    1.28831583189819
P         7.23272578421731   11.65911311994685    4.21037982954016
O         8.59996957734207    8.98997457235786    3.96419388311674
O         8.30036784098773   11.24437855937395    1.38319265507631
C         9.05081661118704    7.00035071474035    0.89728824017292
C        10.23525999171916    9.40494074933087   -0.27712775301497
C         9.64862673364319    9.04541672983515   -1.48496180761192
C         9.94601418543539    9.76105735318854   -2.63243818979276
C        10.81591506163509   10.83760121613080   -2.57807740744190
C        11.39043450852532   11.20779725118568   -1.37077925378858
C        11.09932088711790   10.49894986768332   -0.22120672873151
C        11.42197394399797    8.11839972223596    2.00090753490264
C        12.53287847408154    7.87847780504506    1.20028779629768
C        13.72342169807597    7.48170875751925    1.78191851668552
C        13.80818211857096    7.32329732942685    3.15565116146814
C        12.69993795633928    7.55853391029979    3.95348109322325
C        11.50614294341263    7.95490092507857    3.37951026588991
C         8.01117757891471   13.30719355636922    4.31258211741979
C         7.26144281587835   11.11994255819720    5.94435666276443
C         8.46327798357063   10.62054446047268    6.43954923604687
C         8.55027679407971   10.21946317921998    7.75953267485529
C         7.44383100421973   10.31468174214179    8.58884438682229
C         6.24904294391920   10.81365011893125    8.09750666768868
C         6.15318834751259   11.21696461183065    6.77714372077716
C         5.48486761216968   11.91947046512553    3.82696529735957
C         4.67096245985077   10.78679031229400    3.83240543026355
C         3.33514333463581   10.89248964815124    3.49793319795930
C         2.80324355337862   12.12513948637351    3.15089784404008
C         3.60851918319362   13.25169898432985    3.14304010896396
C         4.94867675137438   13.15355747256488    3.47693110193776
C         7.74475566036767   11.75776492639465    0.24727977755179
C         7.19213518031464   13.16988982133025    0.45387668743739
H         8.05696213722627    7.16938522686101    0.48455855491190
H         9.67825189587311    6.43312473554629    0.20992903767779
H         8.94099699096936    6.46008759007892    1.83810410007986
H         8.95790473040250    8.21650747346938   -1.52839642736068
H         9.49178697101985    9.48044741138405   -3.57157031101484
H        11.04110286520795   11.39433894704914   -3.47592050647838
H        12.05970102067626   12.05442079792660   -1.32642137366784
H        11.52473750251855   10.79031666596774    0.73078740280124
H        12.46726626361206    8.00935859620102    0.12860588376028
H        14.58871400682977    7.29955619772252    1.16124109717178
H        14.74259065058374    7.01995545645968    3.60456932374426
H        12.76895790664507    7.43957687719243    5.02430153789371
H        10.63320256017182    8.15949878366823    3.98814847696226
H         8.00787683496380   13.78344938773117    3.33361179256137
H         7.48730849776762   13.92329948851323    5.04318243138868
H         9.04652811720429   13.15831903438705    4.62088952972054
H         9.31687491258080   10.53716178019413    5.77962738310697
H         9.48078257896071    9.82740627711029    8.14195174741316
H         7.51104048900499    9.99622297323558    9.61878056476834
H         5.38624136415034   10.88717476244701    8.74344342944501
H         5.21838137993900   11.60195159951037    6.39442950418784
H         5.10451753683144    9.82976843761140    4.08842255974614
H         2.71001877961423   10.01260580201119    3.49788710396314
H         1.76037622075709   12.20806760489164    2.88253319789149
H         3.19385968005580   14.21200110151243    2.87179108114982
H         5.56814661873325   14.03909086601030    3.46929692472506
H         6.92527097643250   11.08314746316399   -0.06346268235769
H         8.50256415388878   11.77574320405882   -0.55470290604548
H         6.76877820148422   13.53536488840790   -0.47756747773942
H         6.41400196185584   13.15256925441486    1.21532661878855
H         7.99148018663168   13.83943128373156    0.76753068585787

