74
CSD_code = VIVZIL | q = 0 | S = 0 | Stoichiometry = C38H27MoNO4P2S | MND = 6
Mo        5.54995096459621    0.20830845088136   14.43508353024085
P         5.23508659586554    3.33801863510311   14.32535590629633
P         3.41953066988055    1.19179169204444   14.23140912115985
S         6.55295074883242    2.45655995511115   15.47152130849766
N         3.59590920214312    2.89086558521895   14.48010187855330
O         6.58567559732317    0.47775552740961   11.54036198006074
O         8.32159885334264   -1.06715464102818   14.92115812867347
O         4.40996187200931   -2.46187543112639   13.41912126982901
O         4.71043094440605   -0.48876337063297   17.33431899319750
C         2.61901237200704    3.88122653596597   14.77103097663238
C         1.65577023084751    4.20389258687445   13.84951993209823
H         1.62052406413415    3.68686281269283   12.90204612323233
C         0.72327662369213    5.21628414598007   14.11261638412420
H        -0.02760579521461    5.43971375782737   13.36957142532077
C         0.78418347524544    5.92652795323441   15.27692440083447
H         0.08382627658024    6.72491777528097   15.47310560554444
C         1.85984097131322    6.36026927718461   17.45042546570220
H         1.16026196979335    7.16598791752911   17.62000945811426
C         2.80744632716035    6.05258408112167   18.38541994623140
H         2.87013024405048    6.61475574946431   19.30520277365380
C         3.69794441535989    4.99245970083280   18.16335119461511
H         4.42879465014531    4.74174008045755   18.91718503768343
C         3.64225114662588    4.27610562132863   17.00077719097917
H         4.33151090237857    3.45304072374487   16.84865314191319
C         2.69050983869670    4.58330999285269   16.00585703241276
C         1.76698953800845    5.63390753940010   16.24495740710384
C         6.17210810142992    0.49306624702937   12.60641356790420
C         7.30455325000518   -0.58600528222571   14.74866052019221
C         4.82894380777297   -1.46813069591669   13.80546302913856
C         5.01932992953918   -0.20038880072097   16.27772917524073
C         5.64882676833286    3.27795537239876   12.55604089155900
C         6.99738272085877    3.41232925302866   12.24031541171402
H         7.72493511663753    3.47310335778173   13.04107921669525
C         7.39177424705342    3.43428431642650   10.91661325581608
H         8.43868661252308    3.52165555739931   10.66806514793707
C         6.44288948772882    3.33200777448331    9.91099359714912
H         6.75283583931393    3.33491534426008    8.87683473300078
C         5.09884328382596    3.22287683350493   10.22752197783848
H         4.35974580819573    3.14562158963012    9.44350283498637
C         4.69528154705220    3.20754077872051   11.55029564192816
H         3.64651875244546    3.12218449921926   11.79849500207995
C         5.24025831649803    5.13529135024450   14.60885516282437
C         5.98035241245074    5.66660207095456   15.65528141232471
H         6.54815627806289    5.00149087378461   16.29129199224463
C         5.97829945983074    7.03206709701269   15.87336637039564
H         6.54841445309804    7.44650235951904   16.69100835064146
C         5.24294963505356    7.86414099936140   15.04578585932519
H         5.23316153283344    8.92922638748197   15.22281990078304
C         4.52923518022717    7.33567929508951   13.98173767404224
H         3.96965395977785    7.98711201131290   13.32712206104231
C         4.53428221491792    5.97303462718162   13.75305937115573
H         3.98751027062284    5.55740368856080   12.91791585513862
C         2.24847048073786    0.62604302442748   15.49565793765694
C         1.79609393949874   -0.67800212510391   15.28773239473777
H         2.08024313735731   -1.19614160711906   14.37838870615858
C         1.00349080987279   -1.30204632834148   16.22875019937733
H         0.66055856298317   -2.31216566852263   16.06046497625612
C         0.65745447824959   -0.63280091051588   17.39352898386651
H         0.04039955442014   -1.12012385683587   18.13370272759783
C         1.11442025143511    0.65436930941510   17.61074313878729
H         0.85676194972442    1.17562887154024   18.52139120492023
C         1.91540059014007    1.28345276396383   16.67153841993145
H         2.27497297381582    2.28063761809026   16.86946976569791
C         2.33156030253783    0.99253588627575   12.77870763821719
C         0.96489421192291    1.25714275380869   12.84693800618307
H         0.52995365425266    1.60373808875729   13.77566736097701
C         0.16864389016660    1.06917217688467   11.73278609360401
H        -0.88968292925944    1.27911712900421   11.78834444837075
C         0.72348622716964    0.60301751122991   10.55040853121148
H         0.09639876804723    0.45329037583540    9.68393824468050
C         2.07665447834186    0.31520559379776   10.48535180753182
H         2.50808834482212   -0.06505402382414    9.57134122222574
C         2.87783335118840    0.50618111257699   11.59751032725194
H         3.93301128721143    0.27004274437368   11.56148423891471

