77
CSD_code = VIVZOQ | q = 1 | S = 0 | Stoichiometry = C26H47OP2Pt(1+) | MND = 4
Pt       11.26090280817189    2.28152453798279    4.73569873440502
P        11.29347895342343    3.71280012977263    6.54251582537781
P        11.51058978483226    1.42403911448431    2.61219029788382
C        12.72512838388542    2.54959975817820    1.82799885868737
H        13.72699571898837    2.13194972440645    1.96576360793238
H        12.55114898533621    2.64910043786912    0.75306737165203
C        12.64965379533466    3.87612604392287    2.53590197445036
C        13.18589156880963    4.99614057214918    1.91495922528944
H        13.62257061564420    4.90275658522406    0.93099737653689
C        13.16907083007542    6.22393781941812    2.54743663721312
H        13.58856090359480    7.09264427862788    2.06523573683555
C        12.60652221627065    6.32500590354744    3.80491584923808
H        12.58305124235170    7.28009672790464    4.30972222274100
C        12.06369499349554    5.20821160826031    4.42569714792913
C        11.41752284855107    5.37143088584781    5.77553763819478
H        10.40647237330905    5.76647354722994    5.63617908072660
H        11.96385551864073    6.07332676782478    6.41150933425013
C        12.07225202526070    3.94784749398083    3.81141018034921
C        12.33495731450954   -0.26627030485309    2.49717571414433
C        12.90846231116451   -0.57675193952498    1.11673061549023
H        13.57612631240265    0.20682023983882    0.76812454845702
H        12.12564140622523   -0.71753161021252    0.37775802033082
H        13.48239838404551   -1.50056015529551    1.17237712222334
C        13.47040905792028   -0.18551451728571    3.52763384621899
H        13.12200726972536    0.28303658480607    4.45582481229409
H        14.30968039472021    0.39426688977405    3.15062164309251
H        13.83954555026609   -1.18142542862232    3.76412285231812
C        11.35192857617519   -1.35989509526164    2.90699986029811
H        10.85087957373482   -1.09707268629268    3.83813843183582
H        11.88053071212998   -2.29953197986181    3.05871629037012
H        10.60168180450767   -1.52351198225919    2.13727121714360
C         9.92508568941943    1.62590051340867    1.62704486922934
C         8.78954090927076    0.94425261606139    2.39089158857990
H         8.91015691767744   -0.13489018710460    2.42580790259080
H         7.83979745547244    1.15812497677188    1.90390092223544
H         8.74260174571075    1.32978812981810    3.41036970093167
C        10.01584631573375    1.09322671949589    0.20182213209988
H        10.03513161514248    0.00603590328390    0.18634759655180
H        10.89752592550735    1.46882619956241   -0.31344071339290
H         9.14058723564544    1.41555084555440   -0.35984650545153
C         9.64986015121931    3.13215404253634    1.62492769684571
H        10.38184436479287    3.68184101765801    1.03871835462061
H         9.66407008869390    3.51948407104821    2.64818651437363
H         8.66586826168867    3.32558817071634    1.20203427567031
C        12.88003939615631    3.49736213083045    7.52663276661329
C        13.00039278733925    2.02772208173864    7.93060393048653
H        12.94312130677258    1.39697022164163    7.04147436342897
H        12.22385052988623    1.72923541146364    8.62909397709497
H        13.96362014905954    1.85474651788569    8.40712231694877
C        14.01453022440391    3.80713834790421    6.54628276396331
H        13.90147705173028    3.21226973378578    5.63573043401707
H        14.97085719929475    3.55520099994235    7.00071135733617
H        14.04086948371816    4.85767731303322    6.26916387021831
C        12.96870568077148    4.40452302265305    8.74830529646388
H        12.27595964998427    4.09236330176240    9.52613292620459
H        12.76843910220827    5.44284326574431    8.49194496623702
H        13.97436684694757    4.35339501794694    9.16245672142431
C         9.71753710439153    3.80891341268836    7.56844399709261
C         9.58732782844941    5.09948832310464    8.37421136827468
H         9.66114154550862    5.98196992736723    7.74428492855448
H        10.34012280921487    5.16694018492506    9.15360852106059
H         8.60998873719539    5.11785853538466    8.85428957550386
C         8.60108677463267    3.73802128234132    6.51779576573111
H         8.54694556455434    4.65464210767107    5.93404913144542
H         7.63593295860132    3.59859851792454    7.00104560041398
H         8.76290990034461    2.90323355032713    5.82909878046054
C         9.61814667372959    2.60561887001432    8.50350700576834
H        10.30393502503557    2.70075235261480    9.34188066597345
H         9.84081232822339    1.68134375433775    7.97252951885439
H         8.61000074696106    2.53241119740097    8.90827956816514
C        10.49923305347767    0.65714084191425    5.63753399521143
H        11.14395604062546   -0.08315787670167    6.16114580939716
O         9.25278255106832    0.36305007750778    5.68541343917805
C         8.76213405417145   -0.80247313790739    6.34134515967553
H         8.05513970010857   -0.48535102756311    7.10859684625602
H         9.57410536304678   -1.37862146821260    6.79202353684472
H         8.23550292291628   -1.40857976187271    5.60336468692693

