74
CSD_code = VIWCIP | q = 0 | S = 0 | Stoichiometry = C38H27MoNO4P2Se | MND = 6
Mo        7.66603871988123   12.23714436178320    4.18077300866340
Se        6.56469185985441    9.98951915632316    3.01158336961036
P         7.96280047325167    8.99740466299634    4.23881795207494
P         9.75861804615372   11.17253945492371    4.37578444695285
N         9.59635879055787    9.46894170825879    4.11613902802538
O         8.91947526167069   14.76982352859306    5.39198958740385
O         8.59424971839213   13.15769177556466    1.37147805017989
O         4.99992269257168   13.74056435729921    3.75364087613158
O         6.54828175097007   11.83529164232971    7.03005824597123
C        10.59300549831310    8.49678247144054    3.82657555551791
C        11.55090210178276    8.18666152712916    4.75832280506476
H        11.56138182071911    8.69474905599754    5.71104574967978
C        12.51186729319839    7.20057474410450    4.49882701070977
H        13.25747412034160    6.98843901583412    5.25039359327053
C        12.48606583346539    6.50249265251026    3.32598522508747
H        13.21033787652632    5.72565903736592    3.13057305056689
C        11.45071843379854    6.06187343670087    1.13552734418858
H        12.17650282428662    5.27949678619725    0.96692207086353
C        10.50469739172294    6.34888938061941    0.19247886838411
H        10.46978786766424    5.79420198584104   -0.73325303370028
C         9.57792564540062    7.37711084690077    0.41578918148861
H         8.84516006019115    7.61053005986866   -0.34153820566534
C         9.60084562018847    8.08457721454470    1.58476720037072
H         8.88103580726723    8.88182780631878    1.73662018337110
C        10.55231661510280    7.80122627917475    2.58663802275336
C        11.50775167389909    6.77889455828757    2.34883699729332
C         7.52251819532744    9.03895312952164    6.00372696736526
C         8.46429281746699    9.11860321387491    7.01997948540096
H         9.51484684890922    9.21499041762013    6.78370301434550
C         8.04611784651375    9.09808517212137    8.33823445791149
H         8.77582299875769    9.18249792865524    9.13025434790374
C         6.69975145782459    8.97619880048958    8.63974315005047
H         6.37830734829852    8.97072291861811    9.67033392958658
C         5.76308461954653    8.86594178674644    7.62355566385667
H         4.71424997034939    8.76951026009632    7.86004765051505
C         6.17277176040858    8.89303083669951    6.30467809301700
H         5.45480360651550    8.82580032517448    5.49492846636401
C         7.98469096359067    7.19834309552164    3.94816529286512
C         8.69650853445254    6.37156302058211    4.80998062487030
H         9.22949648400503    6.79337231553654    5.65082794300015
C         8.72402926895602    5.00904462518265    4.58010021265424
H         9.28787122213034    4.36610716917591    5.23936789034139
C         8.02755934632409    4.46992600983374    3.51006460842913
H         8.05498656415817    3.40520768363878    3.33309634279752
C         7.28652687146644    5.29095672241692    2.67619270042820
H         6.72967231881385    4.86864476513131    1.85359127950643
C         7.26303668127272    6.65574767790170    2.89575602380763
H         6.68999631640503    7.31442121215834    2.25455478648262
C        10.94312829662015   11.74136415840224    3.12530709376573
C        11.23297593366831   11.11043084082475    1.92353993053658
H        10.83407945499221   10.13343971784247    1.70204016518010
C        12.03897830641695   11.73963886345557    0.98905403102241
H        12.26312972857822   11.23753482950810    0.05903983470125
C        12.54219174967491   13.00401809970479    1.23563054296226
H        13.16266439858354   13.49296194545727    0.49943897239520
C        12.23607379981925   13.64977051746068    2.42451675524325
H        12.61289652825813   14.64373181121678    2.61526085301156
C        11.43920472155426   13.02466780553861    3.36137764207700
H        11.18654065892731   13.52763605653391    4.28817018065404
C        10.82939550232225   11.35890522925899    5.84332440534287
C        12.20095852957577   11.11694824631940    5.78553953858419
H        12.65083995427352   10.78990376824796    4.85685476887662
C        12.98387360815907   11.30268697245762    6.90941188856863
H        14.04608331927648   11.11166381670374    6.86018515473728
C        12.41090302787953   11.74264903335737    8.09307765324632
H        13.02763526984084   11.89190118672264    8.96700190012245
C        11.05220603731393   12.00456142159520    8.14983805088225
H        10.60551419512382   12.36336681826385    9.06518546726917
C        10.26473817610918   11.81656144538122    7.02746086483742
H         9.20520601955414   12.03282040973382    7.05933625419842
C         8.45690548067763   13.82746386039194    4.93158854345339
C         8.25335877405987   12.77303605327991    2.38794351984889
C         5.97103188778486   13.16261882062717    3.89834211314872
C         6.98933080228906   11.86154167801893    5.97427475953810

