74
CSD_code = VIWCEL | q = 0 | S = 0 | Stoichiometry = C38H27NO4P2SeW | MND = 6
W        11.23669161356323    4.12836010025773    5.31767993318306
Se        8.79381234742047    2.83446944284778    5.62521556429460
P         8.21171641238849    4.14823871838320    4.07557575107186
P        10.81543252136819    4.40210681617477    2.96812830638551
N         9.13553498424872    4.12649082212607    2.63772348886376
O        12.46934432556181    1.34432226574358    4.56166090642054
O        14.00866058779638    5.48227435918974    4.92187777789252
O        11.84998436982733    3.64583503806411    8.34354106310636
O        10.46759355375092    6.95557263140436    6.39203967616929
C         8.49534044848457    3.89355774699582    1.39013413284519
C         8.45224140634695    4.88121387548495    0.43894627367942
H         8.92222902926607    5.83436553700271    0.62990036817183
C         7.78788870947087    4.67744006020992   -0.77760683846475
H         7.78120172327126    5.47272154906726   -1.50784843681881
C         7.13777204299387    3.50197972939926   -1.02132113731294
H         6.60494260651060    3.34808203677956   -1.94800604490461
C         6.47283677247018    1.24739269108397   -0.28706532077342
H         5.93432664012050    1.12049397633371   -1.21509765516045
C         6.50238548524198    0.24696756936604    0.64295705689771
H         5.98482497167035   -0.68320223558945    0.46179838097025
C         7.21827020458571    0.41702584628140    1.83654854364979
H         7.25332516241721   -0.38485435563680    2.55815682850789
C         7.87256854297412    1.59024537294333    2.08736620470794
H         8.42827587807360    1.70115627849138    3.01111369200837
C         7.84676561809979    2.64960928825081    1.15663179558169
C         7.14597030635463    2.46674887078602   -0.06402235654019
C         6.50333081513497    3.85650017011882    3.51184300288156
C         5.90261945433523    4.76541097995253    2.64816930309264
H         6.44360468593808    5.64225307404784    2.32061380157814
C         4.61334842690173    4.53722665067357    2.20581774701849
H         4.14999685947060    5.23441119390362    1.52380041003132
C         3.91706642507177    3.41995962120769    2.63885507674779
H         2.91120643337897    3.24450384919588    2.28793884669893
C         4.50309800043392    2.53624000145137    3.52993023818806
H         3.95431959221620    1.67552192742363    3.88082435121370
C         5.79597967953680    2.75473855290348    3.96842588664544
H         6.27037342002625    2.07451069361959    4.66465612031618
C         8.09358674421946    5.88467909136239    4.61078815860029
C         7.56176141440432    6.10278706807647    5.87702340200809
H         7.30874258334894    5.25195001246716    6.49830815792807
C         7.39218986747425    7.39398076219834    6.33729005028363
H         6.99536879718424    7.56539287104438    7.32642052945089
C         7.74576787274285    8.46595975186273    5.53242630443989
H         7.62842548661795    9.47488959949745    5.89802887341762
C         8.25474076296105    8.24727954542326    4.26292598324949
H         8.52989842738171    9.08254221861118    3.63569489949531
C         8.42009486734953    6.95715420587857    3.79274798526229
H         8.81960539149106    6.78578396105155    2.80320377530541
C        11.72514993517723    3.20566443294104    1.94674902937763
C        13.09722146917387    3.45888573420736    1.89120168999841
H        13.48547554356663    4.36194981772218    2.34752530281274
C        13.94896382138709    2.56741542065664    1.27292131748389
H        15.00894353824529    2.77088377649105    1.23762735601181
C        13.44234578751041    1.40572434335031    0.70854558812054
H        14.10752784650942    0.70376468304902    0.22812821282083
C        12.08653019531668    1.14168017926440    0.77570754099556
H        11.68848841179407    0.23228720512595    0.34925215320125
C        11.22758071553896    2.03116684567009    1.40062316971448
H        10.17710806214739    1.79629773277335    1.45761430467436
C        11.26722308157906    5.92143792880507    2.05515691411604
C        11.50745540960158    7.08129379348393    2.78180738512059
H        11.40183802966207    7.06010995404636    3.85812934922130
C        11.88938804547299    8.24345304704666    2.13519231199588
H        12.07650287599932    9.14000394063935    2.70720159033502
C        12.04140068124666    8.25015938164211    0.75854763135303
H        12.34264111142828    9.15513732496818    0.25195329707297
C        11.82148518694549    7.09098413551497    0.03009154765080
H        11.95362604650599    7.09219947110566   -1.04212884248133
C        11.44229207905878    5.92737508921156    0.67302667160592
H        11.28459680084679    5.01874805177138    0.10658654876901
C        11.98254541887813    2.34241589955654    4.83028850962513
C        12.98938453124684    4.96881547313328    5.07061192812455
C        10.62619622764081    5.91567736611479    5.93080982657330
C        11.61012687648619    3.80167913574828    7.23676880656044

