107
CSD_code = VIWCUB | q = 0 | S = 0 | Stoichiometry = C40H50N6NiO10 | MND = 6
N         3.04404337070497    6.82870926041953    1.49499128495497
N         0.79494349628177    9.61184740225674    5.18850054565247
N        -0.36169960299073    7.73837115873347    5.23664893949016
Ni        4.01818906274489    6.18014742147062    0.00502221080227
O         1.61216370456254   10.51950349170191    4.87736198464402
O        -0.77154895575195    6.56494709454790    5.02255400831701
O         4.24165203857805    4.47462572310202    0.89932245768610
O         6.42856626285136    4.42697218423198    1.32897892580914
O         2.02496947318370    5.34438850212203   -1.09359957343111
H         1.35441121724356    4.99860196562223   -0.50124797269034
H         1.75327001613688    6.28180115656603   -1.28440440327498
C         3.23826303913972    8.06388992351275    1.95368693468408
H         4.02621698720962    8.63723188625734    1.48674557787732
C         2.49014149394854    8.61266479053782    2.97605817954168
H         2.68461619454329    9.62031285008327    3.30484127837823
C         1.48035363308326    7.85290066739584    3.57534560873728
C         1.30655263637856    6.54642709051809    3.10503820770256
H         0.55615880792763    5.90516161086398    3.53775446522498
C         2.10376044670495    6.08581826374959    2.07785633933162
H         2.00022672003668    5.06874621915210    1.72423477843825
C         0.65537639010252    8.38972237533472    4.64429727604338
C        -0.07924633914550    9.76446349030160    6.37288822884460
C        -1.10530217381853    8.63757851234873    6.14659264308648
C         0.82863910569935    9.53972964953446    7.58845080291627
H         1.26705349841144    8.54417155013925    7.57260025098671
H         0.27714335273142    9.67685139188168    8.51363642641919
H         1.63761953224750   10.26658284718900    7.55248443794002
C        -0.63818874048304   11.18049623713121    6.41626893738993
H         0.19257012392998   11.87926136265070    6.47830026844082
H        -1.27310235217493   11.30537627504116    7.28857768087062
H        -1.20512574741871   11.41792958678030    5.52170458474030
C        -1.53680958311847    7.86638392570710    7.38707766541737
H        -2.17907506938047    7.04495608559403    7.07884949896529
H        -2.09004723199956    8.51701004672024    8.05805572389906
H        -0.68774482084445    7.44374894363009    7.91488746884189
C        -2.34909039779962    9.08064019967322    5.36622712985996
H        -2.07417088607079    9.61342632064071    4.45845478829495
H        -2.98427781620278    9.71363183322213    5.97844076743706
H        -2.91053571226667    8.19317043348680    5.08116251491223
C         5.30669479464159    3.90624440487506    1.28556967829588
C         5.14207084261452    2.47463929463930    1.71754075786876
C         3.96313063729712    1.78859918373077    1.45251586850936
H         3.16652795811766    2.30267421051135    0.93476522708350
C         3.80973998646298    0.46607204901340    1.83803856332574
C         4.85941552968237   -0.16159435126588    2.50073367933154
H         4.75131578657207   -1.19276158654704    2.80756969910785
C         6.03658254332923    0.51575201191844    2.76731375477485
H         6.84237657500955    0.01165285006163    3.28135588166853
C         6.18360384249360    1.83346156408451    2.37547676862652
H         7.09375555281590    2.38068291886384    2.56777672745104
C         2.53409259041094   -0.27356312483207    1.56556828806927
H         2.74027746286377   -1.29183919776250    1.24168414491746
H         1.95003013495341    0.22872554042366    0.79859512014691
H         1.93204383984514   -0.32716122555267    2.47320058371905
N         4.99064973923684    5.53075421530900   -1.48574299293423
N         7.21638199875550    2.74854266108399   -5.19400041404736
N         8.37555825224965    4.62033515158387   -5.24634270639363
O         6.39991399171677    1.84150654958724   -4.87909415440200
O         8.78853227233917    5.79276683284394   -5.03289453938438
O         3.79618411578758    7.88609755941774   -0.88898747518618
O         1.60989444127715    7.93755620124757   -1.32142446840731
O         6.00985672160611    7.01984508306428    1.10315167448285
H         6.67870198529099    7.36698362104356    0.50965416853495
H         6.28332580489615    6.08281630015637    1.29308224047101
C         4.79237248266426    4.29635719413357   -1.94485841789439
H         4.00564326138144    3.72373557676136   -1.47497961830293
C         5.53487874171943    3.74746921364832   -2.97122737645024
H         5.33712123473358    2.74055243168051   -3.30028961449186
C         6.54309028364618    4.50624559076058   -3.57439938417346
C         6.72190556366082    5.81155775392574   -3.10275474608922
H         7.47160864508623    6.45194184921963   -3.53796875888732
C         5.93016603735305    6.27236452268114   -2.07141069832395
H         6.03736677323670    7.28874408773341   -1.71693043584253
C         7.36114313154120    3.96961766241814   -4.64876894364989
C         8.08281726338124    2.59657429722298   -6.38414758043834
C         9.11203018544746    3.72148909506927   -6.16243801918458
C         7.16756506922008    2.82477778767311   -7.59352966495404
H         6.73086433783475    3.82100702474357   -7.57323822081357
H         7.71294700249741    2.68832348620839   -8.52243016764533
H         6.35765919995088    2.09915654701749   -7.55363704154146
C         8.63923703269718    1.17974582943267   -6.43351806102106
H         7.80699539348764    0.48238969111336   -6.49140749321665
H         9.26834755339524    1.05535594459336   -7.31009214813114
H         9.21151668108872    0.93989422732442   -5.54301199296530
C         9.53690585048304    4.49406169832102   -7.40435331642433
H        10.18245116037496    5.31393590796097   -7.09885725403643
H        10.08480410394713    3.84366281769196   -8.07991967989143
H         8.68519066795217    4.91894860202980   -7.92604963695543
C        10.36001072141759    3.27514880157697   -5.39069117917710
H        10.08996905077164    2.74128261100243   -4.48208884860867
H        10.99030438475711    2.64216798189671   -6.00795695053848
H        10.92466503176150    4.16124435305813   -5.10770833233636
C         2.73251204421989    8.45653161342007   -1.27588205103826
C         2.89992731131723    9.88842828649829   -1.70587849011879
C         4.07977594833531   10.57211504424739   -1.43878163533811
H         4.87490482394930   10.05603350102720   -0.92076032947827
C         4.23585324132176   11.89484954218505   -1.82250052543880
C         3.18791951615354   12.52516680994366   -2.48544200551014
H         3.29818694425131   13.55647085582385   -2.79104153927517
C         2.00985178574681   11.85019256411512   -2.75404659280196
H         1.20546560435609   12.35631773097315   -3.26830557256908
C         1.86016999727681   10.53223335764779   -2.36404558446525
H         0.94924646589167    9.98684670029834   -2.55789677495856
C         5.51249828276865   12.63196071165074   -1.54785565176690
H         5.30772887885767   13.65003721898111   -1.22245873857687
H         6.09516217458470   12.12748689841047   -0.78126288197132
H         6.11532756033392   12.68608813055762   -2.45493099349107

