77
CSD_code = VIWFEO | q = 0 | S = 0 | Stoichiometry = C38H32O4P2Pt | MND = 4
Pt        5.66977523962134   13.77282095702593    2.56377997539298
O         6.17550050671491   15.28215042593833    3.87782687678023
C         7.39775235808626   15.20383165403753    4.38238755781357
C         8.36334549391711   16.13545363381140    3.92927666513613
O         7.99396560176122   17.00085420455862    2.95307439709643
H         7.08599493326606   16.74407636268806    2.70151379367863
C         9.63912230383496   16.13578838640902    4.45703139249931
H        10.35395165096078   16.85795038719664    4.09527070806849
C         9.98690417773346   15.20391207821742    5.42446651846483
H        10.98663554521150   15.20519561814233    5.83137856350853
C         9.06767258428742   14.26843861704842    5.85723405117359
H         9.34923198392515   13.53202399486194    6.59728520470994
C         7.77327655368288   14.26449441173102    5.35488865232385
C         6.76109216989228   13.22902265862816    5.74688259842592
H         5.84352839789657   13.69401387424634    6.11938981321804
H         7.15475950871231   12.52861744682730    6.48850992369752
P         6.36381066436035   12.34123070717902    4.17734917674036
C         7.98819515739412   11.66851854431759    3.73607617391983
C         8.62790482673406   12.23604337249771    2.63959393799996
H         8.11733513565688   13.01632580555271    2.07726786859601
C         9.89779173260987   11.82282630524056    2.28392860636939
H        10.39494733909616   12.26949908545215    1.43631701608197
C        10.53328812315663   10.83957400765940    3.02394197530944
H        11.52526240288285   10.51347798790797    2.74886458178266
C         9.90478891213736   10.27985601072821    4.12513624385462
H        10.40892205047349    9.52181923948020    4.70660682827710
C         8.63711028291821   10.69568418197326    4.48822889811968
H         8.14931822588846   10.26799466460612    5.35359670179027
C         5.31458765148676   10.93450592557405    4.63384779804465
C         4.14183034016772   11.20023605723330    5.33799381926197
H         3.93687924899988   12.20970658567479    5.66740979432792
C         3.24348412789255   10.18546006335747    5.60548159307481
H         2.33698748898519   10.39652839731384    6.15280737974420
C         3.50303542036249    8.89740895209860    5.16499088255482
H         2.79924644761802    8.10444867247741    5.36884116964852
C         4.66441834019619    8.62855656631879    4.45977984251420
H         4.86649687997574    7.62489035330449    4.11476393341875
C         5.56681789727079    9.64137056856682    4.18864731657169
H         6.46714321408830    9.43362795799139    3.62839933013380
O         5.16454337295587   15.28203102257580    1.24930974305413
C         3.94234323972788   15.20385242043418    0.74460631563914
C         2.97678831881439   16.13559261256146    1.19758760485745
O         3.34620488299403   17.00116884020457    2.17362363472348
H         4.25418649514725   16.74444298043987    2.42517957295995
C         1.70097189305792   16.13583914678249    0.66992448062552
H         0.98616329272663   16.85805327045729    1.03162613915826
C         1.35311568829417   15.20380367109202   -0.29732958967432
H         0.35335996319646   15.20502103197014   -0.70417722447039
C         2.27235337256177   14.26833835491951   -0.73009071348285
H         1.99078502582296   13.53187601984694   -1.47008700543529
C         3.56678977858909   14.26448952163184   -0.22786045089679
C         4.57898453744651   13.22907789840749   -0.61998376553945
H         5.49653992209579   13.69414282385777   -0.99240844720363
H         4.18533655487500   12.52874737200673   -1.36169933180828
P         4.97639657018656   12.34134877864972    0.94954859912020
C         3.35200678314909   11.66862373740094    1.39081910365715
C         2.71232657612184   12.23612604874151    2.48732589405873
H         3.22286121318357   13.01648237952325    3.04958059468922
C         1.44249048166099   11.82282523483777    2.84308059861274
H         0.94527334517907   12.26963764199682    3.69059985445448
C         0.80697634228426   10.83957803478973    2.10309311023244
H        -0.18497792006972   10.51345901364919    2.37821612349204
C         1.43541438256032   10.27991480585539    1.00185001433440
H         0.93134414491886    9.52170450923395    0.42051849955596
C         2.70308130334214   10.69575268720363    0.63871229383234
H         3.19091030164638   10.26794557117026   -0.22658946601499
C         6.02556854690065   10.93458046047999    0.49303289657235
C         7.19833203190782   11.20026118171822   -0.21112171371620
H         7.40326412180157   12.20970325669858   -0.54063475701102
C         8.09660942405213   10.18544061494748   -0.47865780417809
H         9.00313651255012   10.39648165266463   -1.02594974086690
C         7.83697365488617    8.89738318098570   -0.03823920278109
H         8.54084199679754    8.10442873736323   -0.24192241094639
C         6.67563051585312    8.62858772539637    0.66704756558106
H         6.47358464676870    7.62494933955750    1.01217057906770
C         5.77330851475919    9.64144827517834    0.93824733945332
H         4.87296925149367    9.43372542078043    1.49848350613676

