24
CSD_code = VIWKOB | q = 1 | S = 0 | Stoichiometry = C6H12AuCl2N2S(1+) | MND = 4
Au        4.48932863254798    3.73123407017049   11.93819241681801
Cl        5.07776553061303    2.49973787649017   13.71401084652820
Cl        5.79973379485265    2.58182108100318   10.52980722144317
N         3.72982730133016    4.81262877395788   10.45536284234036
N         3.10212095800377    4.73474774597409   12.97940944576369
C         1.66849470165741    3.47566198439745    9.92338252811867
C         3.01948082740804    4.13076292323423    9.46083367624753
S         1.74991443025108    2.28995750609111   11.27614139966327
C         3.35102016679495    6.08784366522762   10.93079823126293
C         2.13707439393000    3.94323119136106   13.61549038294849
C         2.74394553934474    5.97558911058607   12.39779084323664
C         1.10468170330085    3.22656589602443   12.66696429718634
H         0.95587761260241    4.25631040983653   10.18440308236244
H         1.30095762162344    2.91392652555907    9.06529763497995
H         3.67112117619113    3.33995367884371    9.07655124604314
H         2.74807200206472    4.81367576230773    8.64759978688188
H         2.64187078027173    6.58093896356918   10.25952795999450
H         4.25448357050584    6.69607526675648   11.01157873085662
H         1.52445212822341    4.55168556434077   14.29085596778806
H         2.67127792637757    3.17717536181979   14.18666728683767
H         3.20142808290285    6.79445034622338   12.96171571345262
H         1.65700768209958    6.11886493276060   12.41148827380619
H         0.57505626880068    2.50301879440184   13.28511013514637
H         0.40020716830186    3.96224256906247   12.28232005029365

