29
CSD_code = VIWKUI | q = 0 | S = 0 | Stoichiometry = C13H10Cl2N2PtS | MND = 4
C         2.51981565854815    2.61642802175760   -1.92471858115843
H         2.69719332226444    1.74753496087103   -1.31100605906726
C         2.88455540965112    2.63977159454085   -3.25023434370230
H         3.35913299151099    1.78615649181162   -3.70796526772009
Pt        0.71853500363443    6.26976528535622   -1.00044785224010
Cl        3.10313915127629    3.79143478902293   -5.66920900654005
Cl        0.47579414565214    7.91913076613716   -2.45069392134483
N         0.97439497911453    4.86041220067158    0.28944008253266
N         1.54319028844445    3.75791625224199   -0.05038133546953
C         0.61562439168315    5.00584836909830    1.62481491209206
C         1.90315075561492    3.73939163164322   -1.35872143746163
C         2.63676884635160    3.78127866906230   -4.01135031849857
C         0.00873273472864    6.19322289730838    2.05262358350485
C         2.02598050074175    4.90655951586596   -3.46987778931540
H         1.85024334633985    5.77227204700441   -4.09098591367166
C         0.51379715491300    4.18283352932045    3.88815110555638
H         0.70932023810887    3.39955929658749    4.60434349611889
S        -0.35296117196911    7.51826109955196    0.88948633206118
C         1.64871381369608    4.90792416121008   -2.13910589090779
C        -0.08975109823116    5.36267636004628    4.30036008013708
H        -0.36599120590801    5.50117298111781    5.33399740790665
C         0.86418579765528    4.00146443505053    2.56667066160918
H         1.33273475681469    3.09303917633550    2.22287040510733
C        -0.34552358568922    6.36391243769334    3.37876437128578
H        -0.82533941933939    7.28225666139955    3.68163965377967
C         1.14013637905396    8.53945600569843    1.15383587138226
H         1.16658723349863    8.86259834487619    2.19075528428060
H         1.04079003118781    9.39546103123249    0.49246486951192
H         2.03924955065158    7.97636098748630    0.90117960023193

