103
CSD_code = VIWKIY | q = 1 | S = 0 | Stoichiometry = C55H34CuF5N5OP2(1+) | MND = 4
Cu        3.77522323523356    3.04647486957712   17.81828186766395
P         3.38860288671338    0.80548102959970   18.23060352729011
F         0.99528949889262    5.09505641499403    9.32859910617341
O         2.20549239195971    2.37467818656996   20.13063844850168
N         2.42312470866844    3.87330374293080   16.47842204585766
P         3.99472411975944    4.33693823013901   19.67367991185328
F         0.91811090025345    5.33486484495065    6.66407949403389
N         4.96749348151187    3.09319747831528   16.16758008354120
F         3.07128498804344    4.60450409290446    5.14291356910928
N         2.26522632780754    4.39513978472519   11.59280792825327
F         5.30491073419731    3.62394678962045    6.36456984462642
N         4.34462242122318    3.64831282205315   11.35577590773120
F         5.40124382948508    3.37561997328442    9.02305371370999
N        -0.35005971741679    2.35722709323444   21.24072929961241
C         1.76532998160894    0.40705365098280   18.94605897095347
C         4.57026778132352    0.13797185952165   19.43893583010566
C         4.75283355713067    5.98666939798895   19.57986820746928
C         4.03603004679382    3.66296109133348   12.66930403189876
C         3.50063867039837   -0.38708090375351   16.85801708639244
C         4.27272403618623    3.40286669436279   15.06082258729875
C         5.86214243825844    8.50888184324870   19.30980969914376
H         6.29478237179392    9.49241729814575   19.20715184788947
C         4.29405535567728    3.85978769356686    8.47675988199976
C         5.02257269997222    3.51685113129520   20.92904667165913
C         2.07526407834214    4.72511231427457    8.61943275699511
C         6.84861314851576    2.51206760960352   14.82331662823880
H         7.86578613121251    2.15695564959761   14.78832725550815
C         3.20401233984586    4.22809586919237    9.28033832618591
C         4.24775231742480   -0.12765220291664   20.76339344529210
H         3.23645151514013    0.01207540091516   21.11534425309948
C         0.37943627484723    3.53912849416428   21.22022328909968
C         1.95874749272700    5.85990645698690   21.07485376775048
H         2.55829123361933    6.75451912061735   21.01038274591784
C         2.44212755030148    4.65694993696887   20.56129213795235
C         2.11584390581408    4.23602742044152   14.12171633647968
C         6.20810872286462    2.66761811158744   16.05205155572000
H         6.72026127934248    2.44459657048548   16.97817590585263
C         3.98421401579220   -2.53683975215041   15.90772145820572
H         4.31146859501993   -3.55879151987493   16.02658518129306
C         4.62346204939330    3.26987817181571   22.23584484814582
H         3.64163595041701    3.57169085504267   22.57222495786331
C         6.16471475712100    2.82794405921556   13.66963232473034
H         6.60630287617526    2.73707367197812   12.68987741311276
C         0.93462832119217   -0.66907688260284   18.63333312347576
H         1.26961397817654   -1.42596346304322   17.94130795770054
C         5.84298019526344    7.88944417579888   20.55023857841131
H         6.26015989922174    8.39175102548805   21.41009142512305
C         6.51985145581385   -0.78276379904883   21.18347397379244
H         7.27434223079865   -1.15190361896828   21.86109224708992
C         3.13371712999377    0.07716279078890   15.59822319932903
H         2.79585091342513    1.10058767907433   15.49344697940470
C         4.84843791254559    3.28989789389308   13.77752620989002
C         1.19287306169063    4.28349170192002   16.69527852953616
H         0.86682870710024    4.28814146925751   17.72679275142036
C         6.28879740702608    3.12189736220686   20.50504914288312
H         6.58025344178728    3.31574078136948   19.47994783759226
C         5.29213667345397    6.62894367103505   20.69011205893264
H         5.27963205845584    6.13840544551261   21.65363694037211
C         2.72606610291849    4.13008563634776   12.84556418813310
C         1.31803051212421    1.36800875009710   19.84061463112050
C         0.04063451626881    1.31999839784323   20.40306477552938
C         2.01798880929740    4.85613516461897    7.23889981013340
C         5.49407528337980    2.64283282428447   23.11039489586754
H         5.18580726153091    2.45522210469506   24.12821198500389
C         2.91072028264819    3.85069048800347   15.23105417074743
C         3.28116222519847    4.08863605976474   10.72213463977397
C         0.71011682176944    5.88404303899646   21.66671578744099
H         0.33316044242557    6.80692105535946   22.07893047152407
C        -0.76875125788773    0.23785320842197   20.08647530377856
H        -1.75523198371623    0.16849010040550   20.51857731528085
C        -0.31243522671461   -0.74965032887058   19.22159878264101
H        -0.95494383213930   -1.58684384272415   18.99800387431121
C         5.22385135815306   -0.58866259950457   21.62921608397655
H         4.96869124571077   -0.80343895093943   22.65601960988050
C         4.78162986269348    6.60634303267877   18.33508075104021
H         4.36995066876333    6.08322405726258   17.47971611361331
C         3.92616256208544   -1.70278358421633   17.00975078854967
H         4.20924237087506   -2.06889686547568   17.98644885223738
C         3.62537239950432   -2.06703375645816   14.65400098459942
H         3.67945202061906   -2.72160465863168   13.79760395165216
C         5.88151675189295   -0.03697230641989   18.99921656954425
H         6.12523469814676    0.17846639432315   17.96626943755177
C         1.65265940498088    3.51943365692764   20.64893235977572
C         5.33316156134671    7.86761635112227   18.20132682948323
H         5.35542911391257    8.35041933497529   17.23554169881498
C         0.80559912354396    4.66734776538434   14.37063483951607
H         0.16814963804874    4.97131477736952   13.55390454195607
C         7.15662185052201    2.50601218694945   21.38410294959308
H         8.14240552043029    2.21179192178141   21.05668243962289
C        -0.08088461357718    4.74331522139940   21.73603208425814
H        -1.05733277867448    4.78613289194860   22.19357898717299
C         0.34441382158259    4.69628148478267   15.66896137415938
H        -0.65642425011358    5.02622425650341   15.89484757443761
C         6.84893148686274   -0.50476492038534   19.86582642161461
H         7.85957047333999   -0.65621833870543   19.51660608141113
C         4.25204481299726    3.98479646697626    7.09168829365127
C         6.75785841333544    2.26573045997478   22.68977823442424
H         7.43423646883432    1.78498156456402   23.37983245079797
C         3.11360775959625    4.48453271625058    6.46289215687706
C         3.19668315986165   -0.75861498559528   14.49900368656632
H         2.91593632192745   -0.39182095712338   13.52250729113329
H        -1.30308238235404    2.38114356352756   21.56916252563280
H         1.35504683267697    4.75394358129993   11.35399830001557

