85
CSD_code = VIWPID | q = 0 | S = 0 | Stoichiometry = C36H44B2NiP2 | MND = 8
Ni        3.62187593142452    5.81901847319952    7.35980908770462
B         4.72454258156879    7.79459069273635    7.05595354108358
C         3.26243927638013    8.25633922925660    7.28945545018764
C         2.92744686882704    9.25725405051807    8.21564182713323
H         3.72406325175809    9.75505505573614    8.75444680614988
C         1.62035711871942    9.62866172747620    8.43304590879480
H         1.38504530233143   10.41419760414589    9.13820531159460
C         0.59379383987292    8.98846405599868    7.74201906305203
H        -0.43354644942236    9.27694299469149    7.91820156079949
C         0.89020145581329    8.00120550514763    6.83033138370732
H         0.08925028885355    7.51820479499446    6.28532547104572
C         2.21623746725891    7.61922425624307    6.56489046083653
B         2.56904351172262    6.56225980779903    5.47573103194969
C         4.03657551426408    6.40106017675227    5.00049116897813
C         4.37702687667637    5.70356650543521    3.83026365514472
H         3.58214577804624    5.30119156039665    3.21465611681149
C         5.68787287618836    5.54276530737511    3.44355078707185
H         5.92782388870767    5.01734103801199    2.52919797340365
C         6.71216087797851    6.05870199244382    4.23462590438527
H         7.74228735098904    5.92645140207956    3.93289724772241
C         6.41031800283197    6.74392075597124    5.38922780805357
H         7.20997693023129    7.15547143054984    5.99174362299543
C         5.08117136901061    6.94966991405272    5.79628463870955
C         5.86575224382133    8.16645969104587    8.07119093694197
C         6.19647597363359    7.21221219192170    9.04235085449436
C         7.26650103463826    7.42760189499536    9.90441374664320
H         7.55796668141801    6.67893336629291   10.62578255593550
C         7.98498974297950    8.60772851461107    9.83550389735186
H         8.81412401334574    8.77347776107871   10.50904181155258
C         7.64267664651505    9.57485538530521    8.90384272441378
H         8.20173143543694   10.49891702003631    8.85616770547019
C         6.59886676647944    9.34863512820614    8.02519828134793
H         6.35067154960363   10.09460331071022    7.28210287628236
C         1.41823488775011    5.67563022736023    4.87503372205801
C         1.04867498302033    4.53107523340659    5.59371798281439
C        -0.03225839539655    3.75951517267112    5.18045840605119
H        -0.35351163448371    2.90199540650987    5.75254573560435
C        -0.72325866651461    4.09493879514978    4.02994755135827
H        -1.56094361949504    3.49137213968311    3.70966265849095
C        -0.34249158457212    5.20334167720603    3.29036405523294
H        -0.88014034119273    5.45977135895902    2.38821069716781
C         0.71223752181952    5.98944017431356    3.71735612570930
H         0.99040509040729    6.86878350865191    3.15199010403715
P         5.12741647891058    5.72545372424404    9.03138121166310
C         4.24885018888529    5.80568562565744   10.68752652205730
H         3.85798284016164    4.79272081644891   10.84293825743988
C         3.07000930488165    6.75983121583900   10.51439222918948
H         2.35972840608593    6.66608214044739   11.33470426428999
H         2.55278905046541    6.54352412061178    9.57149309087673
H         3.42031169872071    7.78901745133984   10.47471977806589
C         5.08373030121089    6.19107356226884   11.90062600375848
H         5.48990467281614    7.19337216438949   11.78755559860626
H         5.90146268684578    5.49292267429442   12.06397741140060
H         4.45358235576383    6.18037767337718   12.78964706457383
C         6.39471673585823    4.37863950166744    9.30003874971838
H         6.96781762858978    4.60264735755849   10.20524144234034
C         5.71871931894140    3.02311547130171    9.46066458095316
H         5.06209541857331    2.84072305605434    8.61363109313799
H         5.12865367818598    2.97895293702251   10.37339740685200
H         6.46364158526900    2.22951520193384    9.49946112837560
C         7.33596927813092    4.37606246568588    8.09901250899726
H         8.06254281709973    3.56886536106681    8.18024895277361
H         7.87398202535906    5.31931890704553    8.03001002979556
H         6.77069909333640    4.24070989137733    7.17780519155022
P         2.08480800446043    4.19987512083645    7.06687312758790
C         0.78329964591186    3.67813815182407    8.30229599724601
H         0.20271100100262    2.85104695606179    7.88167831794614
C        -0.14030555594762    4.86928302506228    8.54027891163841
H        -0.88311289674905    4.63499094187638    9.30147301228241
H        -0.65940698903601    5.14287140182870    7.62398357904341
H         0.43559602038658    5.73178710196064    8.87347585287297
C         1.42584143090405    3.22342317833748    9.60634990272886
H         2.08268141311954    4.00461252569754    9.98060172766480
H         2.00945607814754    2.31611855574462    9.46677894943297
H         0.66188789639666    3.02356635916463   10.35648967295025
C         2.93398861911739    2.57961529917365    6.64847446629591
H         3.29942214402383    2.20138180298888    7.61101659500657
C         2.08540234402570    1.49693383523125    5.99661708709867
H         1.70458556220561    1.83142669741133    5.03459682570010
H         1.24888998842207    1.20702231379364    6.62826988266600
H         2.69824779761732    0.61176067817650    5.82799615681326
C         4.13662452081226    2.92638383083873    5.77471193839538
H         4.82939211986159    2.08908753103187    5.70275020669036
H         4.66618559130243    3.78900501067357    6.19754056658670
H         3.80998546067518    3.19361207353221    4.77199645067369

