42
CSD_code = VIWQEX | q = -1 | S = 0 | Stoichiometry = C13H22CoN2O2S2(1-) | MND = 4
Co       13.82150904765257   11.92393037108778    1.70921791262234
S        13.18660740597219   13.83647590514550    0.89431341996271
S        14.59136639915979   10.87047130473264    0.06805997815053
O        10.93693281592275   11.87872979871150    4.44542896703003
O        14.35704499715526    9.31317682405662    4.75226672747623
N        12.22581504348757   11.87296008988251    2.58844631479273
N        14.43807931925779   10.47858408059964    2.81324289970755
C        11.36763289088676   13.68559114912683    1.20351213925047
C        11.12226238199678   12.26732070514363    1.73757632013323
C        10.62856403339575   13.92552631655113   -0.10616112543746
C        10.98572202295746   14.72671335545105    2.24952606289032
C        15.75388747609932    9.71092795103102    0.91076994493960
C        15.05586059487885    9.31264562984175    2.20161651254163
C        16.00567202434737    8.51575730090375    0.00116008732129
C        17.04956390677058   10.46003740521221    1.20314964610005
C        12.03466767584618   11.75397367334650    3.90242596187448
C        13.31098844161703   11.48800886408522    4.71658309889113
C        14.08161675954542   10.31334277868160    4.08680158414128
C        12.93208529816625   11.14172564890680    6.15441066028652
C        14.18413640337032   12.74965429706997    4.70383172301435
H        10.19118839001219   12.21898648855591    2.31617090459200
H        11.05850304712271   11.56637800638641    0.89408901189529
H         9.55581083097814   13.79219129144575    0.03572663415660
H        10.81737952747660   14.93711325735588   -0.46003442557998
H        10.97517577720572   13.22651620538877   -0.86447003586919
H         9.90532028902584   14.73542888444344    2.39336493072554
H        11.31368830359090   15.71685737764987    1.93746904069635
H        11.45725301203526   14.48495940833787    3.19959692497061
H        15.76576315188412    8.86827062456483    2.91296238313551
H        14.28287012706192    8.55834831673978    1.98907150666230
H        16.65434241621417    7.79506603872032    0.49843631270166
H        16.47950375627085    8.84159823352741   -0.92273616539542
H        15.06555820611168    8.02907043169927   -0.24778245026913
H        17.77193188269017    9.79442456651625    1.67648154650117
H        17.47836532387642   10.85437596428443    0.28308710632765
H        16.84346760350665   11.29222609541454    1.87655449770939
H        13.82886509219993   10.98716719510303    6.75052542250734
H        12.33358424361917   11.94195536668387    6.58448777935855
H        12.34825329599385   10.22534403459402    6.16722457353452
H        15.10362542402400   12.57366348504298    5.26165240055865
H        13.64829217072844   13.58310471698331    5.15892910115653
H        14.45024318988585   13.02720056099439    3.67301416423442

