31
CSD_code = VIWQIE | q = 0 | S = 0 | Stoichiometry = C14H10HgO4S2 | MND = 4
Hg       -0.62525841051182   -2.31451396701908    9.03578827403644
S         1.78519062062113   -1.91351933541995    9.20881619019335
S        -2.98487571505590   -1.89476523881142    8.52806356357756
O        -0.36311010036864    0.14525829081553    9.97316751964606
O         0.24055965812090    2.25859996082076    9.73027691106340
H        -0.39822107799333    2.37099502713351   10.45306314611932
O        -0.66541016413091   -1.20165598593107    6.63652807515284
O        -1.02821902770231    0.52851887194169    5.30813798294940
H        -0.41333167575784    0.03502482432169    4.74115165337873
C         1.88396551271891   -0.54517546385185    8.10527966915951
C         1.26214458973271    0.70204409492773    8.29955639231217
C         1.50817688126454    1.73456688056611    7.38875503918706
H         1.01756314415202    2.68285966169764    7.54446258240161
C         2.34477797097396    1.55097450964446    6.30910748127039
H         2.51245934083115    2.35732182055587    5.61167542393332
C         2.97111022499654    0.32419838659936    6.12933596452448
H         3.63213788531641    0.17006707521566    5.28937463777756
C         2.74714792161437   -0.70299064681977    7.02162415353457
H         3.23104404607589   -1.65896213111440    6.89483014170038
C         0.32435758915735    0.96909217480567    9.39828324494961
C        -2.88846885496849   -0.14517966058853    8.35606328288448
C        -2.14669943022082    0.53513707423035    7.37272907029952
C        -2.24103133136250    1.92821457860232    7.29129390251643
H        -1.65961459686899    2.43798097208726    6.53877898412245
C        -3.04368193272870    2.64192431815568    8.15476762309518
H        -3.09341026598771    3.71758120774143    8.08250427612253
C        -3.78816062993719    1.96646311825395    9.11345741161835
H        -4.42372559808225    2.51484348723978    9.79286551869295
C        -3.71455527787364    0.59241995517629    9.20331212677227
H        -4.29113741735391    0.05633303718982    9.94105549909354
C        -1.23472387866296   -0.14335689816646    6.44219425791904

