50
CSD_code = VIWZAD | q = 0 | S = 0 | Stoichiometry = C12H25B10CoS2 | MND = 7
Co        0.40751440068868    1.77347503964430    0.94376588171463
S         0.12358711104747    1.19373579916347    2.98643442786101
S         2.01122749697941    0.38900107443669    0.62559568782312
B         1.20008478424415   -1.59699815736751    2.72684136676929
H         0.26617515119981   -1.73808565513959    2.02871898924360
B         1.11347338841414   -1.31947882696773    4.45986193590317
H         0.06244232553396   -1.37069205599809    4.98078361806928
B         2.21982882652921   -0.00126576249176    4.89393193457117
H         1.87343663025413    0.78902110932178    5.69029677215592
B         3.02165594662329    0.57565826389921    3.44158766940057
H         3.15430096041430    1.70902821035812    3.16093789162838
B         3.94693076379855   -0.73848741744053    2.73281385656003
H         4.82338182887922   -0.47007017819929    1.99897033565938
B         2.84095710442586   -2.05681824058321    2.29814833247974
H         3.01335599857350   -2.63021029395766    1.28812817756165
B         2.07930189433009   -2.66872695997316    3.79504151044601
H         1.74693528174798   -3.78998860858097    3.91193709887986
B         2.70781070991148   -1.68907817849970    5.15093890718637
H         2.81632769707652   -2.13639691575413    6.23277930340845
B         3.88708429723826   -0.51299834103388    4.50446972005794
H         4.81501357662380   -0.12853160212053    5.11485009128426
B         3.78953091512438   -2.15078287821520    3.79731605991718
H         4.66537338949972   -2.92562199669414    3.91898869945438
C         1.39923303150960   -0.01516441191389    3.39254989836290
C         2.35194729776191   -0.42172741980519    2.20046266147053
C         0.13623179026875    2.38647104669284   -1.02799409858565
C        -1.11915714888814    2.07874621367448   -0.41414383196906
C        -1.29341361883784    2.95154493290536    0.70751092507915
C        -0.13064775628255    3.75714371351960    0.81692900546016
C         0.75815269770699    3.40539689423257   -0.26004921359829
C         0.65239027854462    1.84533779577015   -2.32183329428525
H         0.50737196951355    2.58552321330525   -3.11026265769774
H         0.13133421731883    0.93493324876727   -2.60391534870007
H         1.71559995065431    1.62345954765357   -2.25455370405279
C        -2.15255657061570    1.15083382037853   -0.96382789732063
H        -2.79048582240799    1.69489374635067   -1.66332539823011
H        -2.78119942960795    0.74719543570628   -0.17346414081872
H        -1.69411102912816    0.32089072818718   -1.49642179512452
C        -2.52701856565860    3.10161239726204    1.53768262307996
H        -2.27823786520650    3.17759288726595    2.59454164498118
H        -3.19648015191056    2.25657179469572    1.40457067668528
H        -3.05480395750548    4.01079523719942    1.24536592469387
C         0.05418210552230    4.89945769407168    1.76097180602750
H        -0.32110546530144    5.81450241123475    1.29850088192238
H         1.10423774219494    5.04855916283185    2.00181947920995
H        -0.49445916556677    4.73340737688738    2.68464844046202
C         2.01753237464865    4.12307509387920   -0.61927203420071
H         2.69778850618240    3.46973504339337   -1.15998689823399
H         2.52532050873010    4.49903803281916    0.26587262740171
H         1.77772359720210    4.97378693522871   -1.26021455005426

