37
CSD_code = VIWZIK | q = 0 | S = 0 | Stoichiometry = C16H16Cl2PdS2 | MND = 4
Pd       11.52799737293775    4.85567509501257    0.00123019109309
S         9.97204456123777    5.63625015645867    1.49946583807325
C        11.24694297459687    6.85315973338731    1.74993681885004
C        10.77923082404280    8.15289735874317    1.58311033489168
C        11.66707898913945    9.20745188262370    1.69844670093160
C        13.00069231319779    8.95522597383225    1.97966682088369
C        13.44976073000909    7.65638055064499    2.16238219143666
C        12.57674785909636    6.58267513125579    2.05298742565492
C         9.30884036477073    8.24945143269316    1.29887319677645
C         8.87225295689970    6.89609866033035    0.74581052905081
Cl       11.82681668005774    3.12236973467480    1.49985584586359
H        11.31798698202645   10.21951991240449    1.55972293351025
H        13.69526418037310    9.77788580562428    2.05400047919420
H        14.48989042873494    7.47209857630483    2.38476440491620
H        12.91933418871842    5.56350751272746    2.23738334488207
H         8.77918163094743    8.47660453594007    2.23004760741446
H         9.09352631161077    9.04104952872361    0.58099087503920
H         7.84773264889651    6.63309525911420    1.00034697586562
H         9.02178358382256    6.84988857263170   -0.33417873203161
S        13.08338531360763    4.07551146952569   -1.49751173446296
Cl       11.23010135012119    6.58907828449222   -1.49812487360075
C        11.80933575542100    2.85789652111197   -1.74880282593108
C        14.18388946351224    2.81565421001766   -0.74491265596334
C        12.27813799631265    1.55830855892039   -1.58385355693676
C        10.47921379818545    3.12766678494031   -2.05081517796148
C        13.74865206535819    1.46270162435207   -1.30004860164354
H        15.20827872273487    3.07974018374686   -0.99873067659293
H        14.03395041920126    2.86029416525642    0.33507494560294
C        11.39126498962420    0.50312059328863   -1.70066412036507
C         9.60717052886899    2.05334968988668   -2.16189291318485
H        10.13550539043790    4.14685508766941   -2.23307907075545
H        14.27826355387617    1.23769741498636   -2.23180323344203
H        13.96502747925955    0.67007021212592   -0.58359892145695
C        10.05741217862727    0.75459425603820   -1.98150351514187
H        11.74135417051404   -0.50880871468290   -1.56342534605438
H         8.56683906789533    2.23706674489356   -2.38382280655716
H         9.36361217533180   -0.06858249970319   -2.05732869785101

