61
CSD_code = VIXRUS | q = 0 | S = 0 | Stoichiometry = C27H28ClN2PRuS | MND = 9
Ru        1.93211098228969   14.25339628393724   12.38101172984036
P         1.87803156518282   13.29319039197663    8.96552696167219
Cl       -0.27566862382406   13.52010939711752   12.64860655905196
S         3.24588796755906   14.00919165639430    7.78399268351429
N         1.57312867948783   14.22774563086082   10.30777966753999
N         1.03360289752347   15.90788568780175   11.58049527936261
C         0.99927177236056   15.44384036735606   10.30601007795956
C         0.43016258182699   16.19333698818770    9.26925501626378
H         0.43848691720063   15.80246648188552    8.26338371793515
C        -0.11074840298706   17.41691919523387    9.58861805295201
H        -0.55317048698405   18.02951120547927    8.81793467406411
C        -0.09592721074476   17.86619538020958   10.91175271113976
H        -0.52602836217021   18.81801312964153   11.17552805304160
C         0.48167723929037   17.07665339688334   11.88422949996279
H         0.51325545738601   17.37926646897010   12.92327132370421
C         2.30077711302193   11.71096163792922    9.76340423105229
C         3.46978395098644   11.05813704551873    9.40003146002486
H         4.11470807926117   11.50944726908289    8.65728621323190
C         3.79565861555856    9.84993593485208    9.99131283048019
H         4.70774767915905    9.34140436984523    9.71425784445569
C         2.94654773372142    9.29231549166393   10.93386331764142
H         3.19811554251651    8.34603296956378   11.39155141323501
C         1.77361684690650    9.94240687551318   11.28835731557307
H         1.11038024887615    9.50437386636828   12.01992400390471
C         1.44419591844082   11.15379297119266   10.70679721309558
H         0.53250614813180   11.66269444888846   10.98528309571368
C         0.25219074908234   13.00050773045577    8.18072739539140
C         0.21398882177622   12.71251477266530    6.82348860685746
H         1.13951192861490   12.67969654922528    6.26475377507979
C        -1.00144303044382   12.48642972154234    6.20372604264912
H        -1.03424328867150   12.26120678994999    5.14783720805460
C        -2.17385153806604   12.55380921029035    6.93901841881303
H        -3.12359925214751   12.38093645233054    6.45415659719472
C        -2.13306242338229   12.84849234321254    8.29277706998936
H        -3.04803478097225   12.90616284744392    8.86350385007341
C        -0.92187127001486   13.07303828210029    8.92142643791713
H        -0.88976662170660   13.31098050392460    9.97639947502543
C         1.93572089863065   11.75298921393861   14.77902534210907
H         2.31118990891022   10.78427140062071   14.45781277483764
H         0.86965513312679   11.80390083706962   14.54536354118099
H         2.05005286384262   11.84683846815636   15.85791489503738
C         2.64753184197319   12.86513290843240   14.07124131550514
C         3.43627366451108   12.62254784300512   12.93378562741269
H         3.59139120637959   11.60591054450577   12.59162852451604
C         4.08875403398396   13.69102074127126   12.26513347034095
H         4.71371378504729   13.46314881691021   11.40868502701962
C         4.03567022474925   15.00939693447636   12.76201772191398
C         3.22463161510200   15.24756498913232   13.90401124507682
H         3.19356544203622   16.24699916707403   14.32848499901417
C         2.53596723804358   14.20310916248585   14.55109139091664
H         1.98289047680288   14.39733385667672   15.46457934582268
C         4.85694002223083   16.11753698272891   12.14589389577387
H         4.66570035203947   17.03803682173119   12.71150413326099
C         6.34904651375332   15.78841930658764   12.25841636072008
H         6.62080304388473   15.58112439305767   13.29201887296566
H         6.94036659824514   16.63072358874009   11.90819010521914
H         6.60019499374738   14.92137219236023   11.65263527664470
C         4.46182326227799   16.36396242727383   10.68862592210563
H         4.59924172133211   15.47259454547510   10.08088283206446
H         5.06975194051186   17.16006968374200   10.26558223165284
H         3.41609307478769   16.66229542905694   10.62379532542795

