58
CSD_code = VIXROK | q = 0 | S = 0 | Stoichiometry = C20H29AuN2O4S2 | MND = 2
Au        5.21928467858380    4.83198448716227   27.34524300010861
C         5.95431088318131    6.30336150718420   28.33537265776309
N         5.77202889561010    7.24455993563820   28.99755824692587
S         4.09123396477052    3.12444112104366   26.21513425145724
S         2.41624897029954    5.37032512430795   27.12147501987785
C         2.55219359255984    3.87405056413396   26.36595563666463
N         1.47074043554968    3.23767394032358   25.90301871582085
C         0.17157459253800    3.86142087346948   26.02128922604263
H        -0.59329173189102    3.09022991223560   25.92782741197791
H         0.10470390259270    4.33102378384724   27.00816398231502
C        -0.08519675980228    4.93772108456637   24.96559653725250
H        -0.92673868068883    5.56791518732504   25.29423757890601
H         0.80112031896233    5.57902889932809   24.86525064106199
O        -0.39396445401756    4.32517686021606   23.73639510385619
C        -0.61809131354725    5.25242185386575   22.70389769445113
H         0.20039296975951    5.98426978105028   22.66162387296956
H        -1.56494104868937    5.78931259399619   22.87473854974066
C        -0.66947596542366    4.50500319339644   21.37762092664892
H        -1.23341263059370    3.57068163984568   21.51550353642253
H        -1.18229555312438    5.11710879433904   20.61821382384886
O         0.65039401998539    4.23514122505791   20.98165576520209
C         0.75928359357949    3.36558837001966   19.88516857281979
H         0.40462562317015    3.85250692813306   18.96167527180799
H         0.14527889742871    2.46654110458039   20.04847746378270
C         2.23716369792020    2.99049504352514   19.72227654180595
H         2.35901756632552    2.40693511130937   18.79642144456701
H         2.82040414202121    3.91125704966621   19.65379192118550
O         2.77179968217552    2.30239560784698   20.82021664502534
C         2.38571659223931    0.95051116336675   20.92909011807764
H         2.82519155734711    0.37161538738524   20.10009852258101
H         1.29509691490604    0.83478586981747   20.89223642928481
C         2.88538290851256    0.40241889559102   22.27054955232668
H         2.95097245651604   -0.68723246922669   22.21204735815857
H         3.88189017570947    0.82098580151979   22.46650755949610
O         2.01679570019091    0.66032296603458   23.33966070196254
C         1.99426230863018    2.00244962671144   23.79592225992491
H         1.28378143020960    2.60858765973423   23.22198492084319
H         2.98994478485560    2.45104297358479   23.70498768364240
C         1.57670546260294    1.94419159276815   25.27154811945089
H         0.61098443239321    1.44106928386682   25.33681719785341
H         2.31784669839447    1.34514029076844   25.80982401845191
C         5.54622427448987    8.35005083187714   29.74561737332064
C         4.47143607588619    9.18118141831139   29.39709228603176
C         4.24674889445302   10.30051574665709   30.18333280797805
H         3.42452516418684   10.95657075180827   29.94047740678528
C         5.05733900025264   10.58206006082490   31.27000432241315
H         4.86425805415896   11.45877611733744   31.86951385790138
C         6.11381297809092    9.74751186049359   31.59479472809153
H         6.74019607646727    9.97519915312697   32.44416496766281
C         6.37869478021265    8.61596320318195   30.84081851056077
C         3.61729255775189    8.85557260485842   28.21672907041640
H         4.21260421007912    8.84924507738639   27.30360724706841
H         2.81884675697122    9.58364407183601   28.10746744610453
H         3.17496338500043    7.86413057408046   28.31375276602594
C         7.50811956779544    7.69031828124472   31.16512061914570
H         8.19953115235618    7.62146066918124   30.32526866049108
H         7.13296433273325    6.68625052363785   31.36314107687317
H         8.05187902738805    8.03938843455087   32.03842237110150

