45
CSD_code = VIXRAW | q = 1 | S = 0 | Stoichiometry = C21H17ClN5Pt(1+) | MND = 4
Pt        6.16137868810076   -0.07336941507801    0.04368575043712
Cl        3.95820401005513   -0.13513624928301    0.00559873729413
N         6.45358434157585    1.14362306677020   -1.51464030369053
N         7.94587145562007    2.19236461915337   -2.79412348631438
N         8.07990382712348   -0.01786975523777    0.07715578086103
N         6.46910166385774   -1.27403409202219    1.61181602499781
N         7.97435483496408   -2.24381826306383    2.93752616311439
C         5.75970593981048    1.84064769703085   -2.46217754121249
C         4.38913614836765    1.95997756570901   -2.69501151022802
H         3.68158529864358    1.44568271823647   -2.06537013932296
C         3.99852523789227    2.75220449206182   -3.74883098948804
H         2.94817416318224    2.87085143519345   -3.96148557865388
C         4.93123874193132    3.41385274429589   -4.55868023474317
H         4.57480794455096    4.02349506346168   -5.37399795015111
C         6.28770177839391    3.30758310136125   -4.34327751853694
H         6.98956529637996    3.82487704474364   -4.97751853732773
C         6.69969906812330    2.51050997805697   -3.28057762741539
C         7.76135632667085    1.36852205764462   -1.73176731939190
C         8.71734401019533    0.72864721948112   -0.84729181274433
C        10.10907724159514    0.78742763950938   -0.83834924783055
H        10.65395671863620    1.37345115254160   -1.55615946940072
C        10.79657283080909    0.06676317902698    0.12905978060457
H        11.87407371320612    0.10046916784090    0.14923584002472
C        10.11892019526683   -0.69646621531687    1.07010041669751
H        10.67090728681663   -1.24741740992534    1.81022558665836
C         8.72677472397566   -0.72491403191349    1.02579938684175
C         7.77936577535910   -1.42417002291964    1.87373455400212
C         6.73259629576566   -2.63677197365588    3.37844175551965
C         6.33078752539234   -3.46395644462560    4.42192799264385
H         7.03933575396407   -3.94376266250819    5.07786572999559
C         4.97609585599400   -3.64941351458024    4.58932932714330
H         4.62769577527226   -4.28483872987098    5.38831174658322
C         4.03524010812738   -3.03627201108534    3.75110172751887
H         2.98677827821871   -3.21612781778491    3.92729774556500
C         4.41567520171161   -2.21547480059767    2.71558955234094
H         3.70164246891186   -1.73809012656541    2.06459011511156
C         5.78435752015704   -2.01645897570932    2.53106823297568
C         9.19169487620471    2.66410580809706   -3.33549380419579
H         9.73826048930897    3.24712056456585   -2.59236341051917
H         8.98023881207904    3.30434910800691   -4.18840298805425
H         9.80557012048491    1.82794133893040   -3.67433380245414
C         9.22608579201324   -2.64919342748542    3.51753088215419
H         9.83377695458901   -3.18427682132639    2.78586346541517
H         9.02361502078238   -3.31715143829148    4.35119577093041
H         9.77526588991951   -1.78408256287262    3.89290120624460

