25
CSD_code = VIXROJ | q = 0 | S = 0 | Stoichiometry = C10H10MoO4 | MND = 8
Mo        8.55046604519877    4.46453204103753    2.00319580457770
O        11.38083400908559    5.08003155187469    0.91068737889066
O         8.91522786390271    6.82187675761553    3.95271872204484
O         7.45112632468299    6.55342071414409    0.01972907979268
O         5.72116345357087    3.95823590364385    3.16155589055170
C        10.33680452759047    4.84449064016547    1.29994447520955
C         8.79024168312134    5.92688947017134    3.25490454421985
C         7.84717417939859    5.75613851881942    0.73412558027202
C         6.75277134946627    4.15467529314062    2.72298932894988
C         8.79638987556860    2.88829861647330    3.72931547624155
C        10.04196258510851    3.07533411157079    3.18101854300733
C        10.67038156252700    2.05997157106470    2.25817726638977
C         9.66652787831992    1.53055281666528    1.22951640129092
C         8.95393119567055    2.64587020432924    0.50619152539051
C         7.59848342175290    2.79094066037367    0.58213718362758
H         8.56184784266487    3.35333116601795    4.68137838705295
H         8.25075758617081    1.97154410293595    3.52976594659779
H        10.75558202174985    3.69099695384392    3.72932899726861
H        11.52393375611252    2.50556654092315    1.73984494180090
H        11.05880978381618    1.22765696223222    2.85771041879132
H         8.93348822217261    0.88931000365875    1.72819444670799
H        10.19811899689845    0.91382502265109    0.49893883984639
H         9.47384648731474    3.04628341621595   -0.36312440499562
H         7.01735832138674    2.07103393669893    1.15042791798421
H         7.05217102674756    3.29479302373326   -0.20757269151100

