31
CSD_code = VIXTAY | q = 0 | S = 0 | Stoichiometry = C13H9AuF5N3 | MND = 2
Au       -0.45151125793869    5.18025217991296    6.66668163185023
C        -1.01351749062430    5.33317336790590    4.72813911736089
C        -2.33062236892573    5.54166764443533    4.33992267007871
F        -3.27980381423035    5.63757006752207    5.30022422920717
C        -2.74277182361860    5.66244335449351    3.01906848992890
F        -4.03579040912394    5.86375355790844    2.71362279326970
C        -1.79827639301348    5.57491769063536    2.00445222663207
F        -2.16829409390803    5.69118384237031    0.72008950588407
C        -0.46585024995648    5.36629848749780    2.33661581073511
F         0.45924001770662    5.27960646411169    1.36601384342925
C        -0.11186119394185    5.25106476852114    3.67480081556611
F         1.19542201288298    5.04540081357018    3.95880744556777
C         0.11537406363495    5.04389400438510    8.62389092649629
N         1.29832380367406    4.66920100195827    9.03755194299108
H         1.46660589072698    4.64963704411808   10.05063412229538
C         2.38278190633985    4.28608275196541    8.17906285768641
H         2.07797088041892    4.38268143776710    7.13692464820318
H         2.66922077601784    3.25140650982933    8.37607736664965
H         3.24707046439803    4.92650916376662    8.36193320254296
N        -0.78650614264428    5.37642607623018    9.58400230065335
H        -1.69329521492520    5.65904716033873    9.23992291718099
C        -0.66528431475644    5.40551683826190   10.96529758818222
C        -1.76225849086546    5.82272039372457   11.72984148240315
H        -2.68267857943019    6.11107061748330   11.24569694734044
C        -1.63483674869476    5.85676987421967   13.10251619518559
H        -2.46228182007525    6.17602693312375   13.71826091974654
C        -0.42889412261426    5.47726869449746   13.68230484252914
H        -0.29362802366040    5.49156952210228   14.75109658590366
C         0.59500979417378    5.07924003508060   12.84549302508893
H         1.55653546642372    4.76953475066552   13.23217826653004
N         0.48600747654771    5.04236495159673   11.52547528288027

