41
CSD_code = VIXTEE | q = -1 | S = 0 | Stoichiometry = C18H16Cl2NO3Ru(1-) | MND = 6
Ru        2.27143192133044    2.56289609634583   12.83220192447911
Cl        3.23279829107631    1.35075392780448   14.65401007774850
Cl        4.32331620531819    3.66763699619231   12.44389351724353
O        -0.14295731310613    1.01624036005573   13.66520271321478
O         3.12807719062028    0.37374107258565   10.98782468911629
O         1.91722377818862    4.12252951782019   14.18855176458714
N         1.48558027982237    3.81731951009309   11.36752391417190
C         0.73126194018600    1.66831438385467   13.30611573724471
C         2.77671214630732    1.21624523851405   11.68268141592928
C         1.93744637779101    5.35755518105396   13.90755491861236
C         2.12993847654480    6.29545091019200   14.96725679460341
H         2.29329100213762    5.88276795668051   15.95232687999538
C         2.14174794136858    7.64188106291586   14.75140378040423
H         2.31123648044485    8.31871665614795   15.57912949613182
C         1.93750371055983    8.16432076258758   13.46675545951014
H         1.94976458746366    9.23323446464181   13.30746228204899
C         1.72513123510585    7.30438496228557   12.42439210687901
H         1.56406907236688    7.69465246658155   11.42645907571609
C         1.71976391707390    5.90715145123253   12.59568712829498
C         1.44193719197507    5.10401175435407   11.45935836194826
H         1.11996299931804    5.65316889883799   10.56707116545838
C         1.05269016162487    3.20756013975119   10.16823441427854
C        -0.27007145386401    2.76562309070955   10.06658919570975
C        -0.67157489720020    2.09580286627614    8.91940820236074
H        -1.69141809609508    1.74161909122358    8.85268514527118
C         0.20097355982552    1.87356423614673    7.86696665743290
C         1.49259779003537    2.37033998884915    7.96479063885723
H         2.17787565382398    2.22782333349170    7.14033114742782
C         1.93529110597757    3.04536017050628    9.09168957537968
C        -1.26963835656540    3.03642080885638   11.15379035275538
H        -1.90286895422518    3.88013460752128   10.87311859118107
H        -0.77615075103672    3.28126362280419   12.09272150491022
H        -1.90883169277908    2.16975489768098   11.30886271007587
C        -0.24728276841425    1.14812947206213    6.63165993325944
H        -1.08462312285006    0.49009562613366    6.85246380631034
H         0.56629473114015    0.55604498405425    6.21819167497992
H        -0.56659788471377    1.86099783751706    5.86957752443630
C         3.31986605706798    3.60890820984512    9.14152088644910
H         3.77477461267633    3.45968334420605   10.12192821359913
H         3.29415359769040    4.68493345534984    8.96254868140401
H         3.94880327595998    3.14986658622366    8.38265794058451

