32
CSD_code = VIXTII | q = -1 | S = 0 | Stoichiometry = C15H9Cl3NO3Ru(1-) | MND = 6
Ru        0.00485692828683    3.60366121431949   11.12231493076281
Cl       -1.02003738042980    4.75255836770152    9.31287718506220
Cl        1.14761300550850    2.13261529022511    9.66550717419833
Cl        5.85655568317706    1.50301233224502   13.09999026910787
O         2.38263496708410    5.36494965631675   10.71429914096929
O        -1.47180778136055    5.39791675646320   13.00389629075578
O        -1.60282086769313    2.27674252614417   11.02583293553553
N         0.84292908433969    2.34708373017858   12.57704883871914
C         1.46522203601352    4.71290131754141   10.92788262581488
C        -0.91199333333214    4.69522907627498   12.28688788845748
C        -1.65220686221210    1.08275573939410   11.42961978050289
C        -2.77180398593577    0.28015223398234   11.04021660820447
H        -3.50040183695174    0.75342095623177   10.39831511166943
C        -2.90873601681798   -1.01455875753626   11.43783248916920
H        -3.76507694346086   -1.59190206712571   11.11441119566328
C        -1.94628621555470   -1.61716601793750   12.26508805995356
H        -2.06526803833901   -2.64672376196174   12.57058359380654
C        -0.86458318617119   -0.88955185698498   12.66988926041639
H        -0.11519285023446   -1.34491696978181   13.30578672852677
C        -0.67497612832279    0.45616615571802   12.28421778321508
C         0.48156057227308    1.11155191861439   12.75831870297394
H         1.12891261184805    0.50072877729553   13.39725253083931
C         2.07381294823381    2.76295492844547   13.07676603850553
C         3.22323016292913    1.99377990204472   12.87948569070662
H         3.16829075020395    1.08489750868708   12.29992613416470
C         4.43375447413043    2.45101833777507   13.36395726999004
C         4.53781894360337    3.64532313254947   14.05618629579332
H         5.49552881446246    3.98086876273320   14.42137110730624
C         3.39171448428825    4.39982224564197   14.25421257397992
H         3.45810737093575    5.33549217311571   14.78883836286731
C         2.17127350166141    3.97089034285216   13.77394502828136
H         1.27767508784136    4.55992604883598   13.92754237407920

