29
CSD_code = VIXXEF | q = 0 | S = 0 | Stoichiometry = C9H5CrF5N3O3P3 | MND = 9
Cr        3.85669878251845    0.05356072108925    7.61384521269867
P         5.63748813036894   -2.43368836668118    8.82895425945282
P         3.70076954373305   -4.33367105283088    8.43912203991984
P         4.18989397501901   -3.42905827284750   10.92874306673895
F         7.16007729599763   -2.98178569335871    8.72671365904721
F         2.34047547708832   -4.10558394695962    7.68212768138102
F         3.93701651465917   -5.77670715628916    7.85113267454824
F         4.81875123784564   -4.21342849869283   12.14453721555799
F         3.15725111570033   -2.64014646999124   11.81604703897750
O         2.54713730249331   -1.99056564575900    9.30696829177820
O         2.19796169967842   -1.54504432774921    5.74113040839706
O         1.36225121853407    1.67927088803137    7.79373970181837
N         4.79967133383650   -3.36070018935362    7.82488950648257
N         3.49589073753396   -4.51954495471647   10.00503963285426
N         5.28080295698278   -2.40129618906113   10.38883366920006
C         3.01641964395024   -1.11987879837760    8.69952110801921
C         2.85560808037879   -0.89301530405670    6.41786998186648
C         2.34928013974723    1.09561006211714    7.72188869316838
C         5.77178305766138   -0.78816538551983    8.16878476613245
C         5.77849572028598   -0.63164299382014    6.77906611657578
C         5.60664980536086    0.65009985116952    6.22728898417854
C         5.35622589515554    1.73365279881766    7.06750398734021
C         5.37478711602188    1.57411033979546    8.47427311286114
C         5.59739029096007    0.32099741536591    9.02551232883359
H         5.97667494349853   -1.49263743221874    6.15166804325550
H         5.68168477565660    0.79479712429566    5.15658701099939
H         5.23709073701045    2.72599399974055    6.64934703667357
H         5.26957059755363    2.44368765211072    9.11076509884188
H         5.66080187476844    0.16727982574915   10.09609967240128

