86
CSD_code = VIXYUW | q = 0 | S = 0 | Stoichiometry = C20H55N2P4Si4Y | MND = 7
Y         4.50963824873859    8.08283615304486    2.75094946801355
P         6.31210507719485    5.78365012947131    2.77710060166404
P         3.64152642288186   11.03082829452329    3.26454294404269
P         3.87800734053576    7.28662464002371    0.02091398012602
P         4.08782497159220    8.63802648746168    5.48812047564701
Si        7.97645692411400    8.19398348651518    3.70010101274382
Si        6.43540686237903   10.34085007372886    2.06462593910106
Si        2.21808789806454    5.54901500257939    2.03569558140845
Si        1.53476808087845    7.17647186338607    4.42061947623540
N         6.66962876772302    8.79620855232789    2.81596945390427
N         2.51229342741153    6.90640306564371    3.03675481589797
C         7.61012311927586    6.30749925505653    3.94039516385887
C         4.53847824701717   10.26790328743039    1.90915510980802
C         3.30848084000539    5.60725199211600    0.43937524462416
C         2.26832965618665    8.57880689274956    5.51877570760567
C         7.20353082895144    5.99375087372850    1.17940708941909
C         6.45220687701132    3.94007113903359    2.92509400257403
C         1.90845411504763   10.77163907421506    2.63427960396894
C         3.69146920531904   12.86670828845287    2.91393990080595
C         2.26684422448185    8.08816646909282   -0.36313299429248
C         4.48827350638431    7.03936165027545   -1.71005128409972
C         4.40132222051848    9.96986754641230    6.72032341952568
C         4.48367937572325    7.16011391461617    6.52367150624075
C         9.69883579371602    8.32658507360603    2.87001088754450
C         8.18854921276962    8.90124813745922    5.47120618246968
C         7.21056069388807   11.78891121464282    3.04292132278419
C         7.18983478977038   10.35096159583860    0.29700434449356
C         2.66969817006599    3.86726600951145    2.84225158141036
C         0.41602064559514    5.35303066444837    1.41705856523342
C        -0.25146921081683    7.76317914208874    4.03548455623096
C         1.29175762220582    5.65482019960558    5.56289172802414
H         7.24859751587881    6.11615281899209    4.95200784533157
H         8.49729743546213    5.69230265924640    3.77859338487336
H         4.12844495362266   10.58932256833386    0.94282573672658
H         2.76499331433707    5.19396936947479   -0.41289689044245
H         4.19750029539754    4.99403832868395    0.59634559911064
H         1.93957618444853    8.47220554816320    6.55516387777228
H         1.91927717156337    9.54574792087388    5.15711888021693
H         8.20986937880114    5.58018639454537    1.25721568608176
H         6.66487025421551    5.48383699684292    0.38035999811147
H         7.25730242366885    7.06077224698022    0.96314700640532
H         6.12836573387984    3.62861628442118    3.91703633073260
H         5.81997364066604    3.45324950258195    2.18481605143074
H         7.48691446935920    3.63153173656639    2.77592723126850
H         1.18531232870725   11.25411352903888    3.29247454229020
H         1.80901176649147   11.19364399772500    1.63251430596209
H         1.71085189168030    9.69774825373034    2.60279750756553
H         4.67709146278094   13.24615495213025    3.17202964580504
H         3.50082227365059   13.05734658963081    1.85759204066590
H         2.94711904991074   13.38552038865301    3.51659380483771
H         2.44110169884221    9.07077829881233   -0.80105760528692
H         1.69442662956078    7.47472789350436   -1.06025207499118
H         1.71302974418919    8.20299059630463    0.56759945319247
H         5.39397536379706    6.43623608013570   -1.69960458861445
H         3.72986640443418    6.54366518764630   -2.31561755888742
H         4.72470417687312    8.00829515790690   -2.14674802184466
H         5.46738089713710   10.04690316219407    6.92408734891715
H         4.05684688395921   10.91494668957400    6.30468677145076
H         3.86486476262759    9.75410111129936    7.64497784489422
H         3.87174385556784    7.13875510827068    7.42639820563756
H         4.29627447934252    6.26195979716201    5.93493142234980
H         5.53693918150895    7.18446213132803    6.80281459529117
H        10.47555434661503    7.85027561371082    3.46033985529865
H         9.71096810100493    7.88229511351497    1.88030777289714
H         9.96585422393290    9.37143803729414    2.75886714075948
H         8.92179026928081    8.35488225891452    6.05680651561024
H         8.51039793288204    9.93476939585127    5.41854006953424
H         7.24508625335105    8.88141487198469    6.00916193275988
H         8.26866806868637   11.60711191410393    3.19551307125886
H         7.10553904898205   12.73573848580713    2.52442503826484
H         6.74370523927771   11.87936318697745    4.01803740954575
H         6.74401540871070    9.57196665161566   -0.31587904196100
H         7.04247717972335   11.29921814394803   -0.20765797890121
H         8.25605099917413   10.16447697100723    0.34789963888721
H         1.88740837325419    3.55576902795165    3.52370307122670
H         2.79640095434216    3.07772761849931    2.10779188896896
H         3.58953298942122    3.94306621862193    3.41381547583635
H         0.00844729955080    6.27856777407114    1.02577396831847
H         0.33386858699558    4.59795431215587    0.64154689548091
H        -0.21659064319728    5.04247389377893    2.24049584438296
H        -0.28091093749756    8.59027329163811    3.33430060640213
H        -0.82383103076139    6.95160989184013    3.60312646068689
H        -0.76480183661673    8.08053245211127    4.93770325069382
H         0.90000642696856    5.93511821466530    6.53568926237976
H         0.57776724976161    4.97672892793752    5.10890171566634
H         2.20902591927699    5.09870626203339    5.72145637214198

