62
CSD_code = VIXZOS | q = 0 | S = 0 | Stoichiometry = C31H23Br2NO2PReS | MND = 6
Re       10.09807520973874    7.91434769946680    9.37483713817212
Br       11.63254456598734    6.12352761394493    8.55168619106671
Br       11.95407163076259    9.53087855895816    9.34105667181827
O        10.29385466771158    7.56730626551074   10.98029086567438
P         8.38316790148279    9.64470873312666   10.02757798002739
C         8.44472518020846   10.13700818093609   11.77482332247096
C         9.69720308957234   10.33251764454579   12.35045835532468
H        10.59175503952446   10.15670453103319   11.77002796066661
C         9.79347286753221   10.73564656685272   13.66987472406501
H        10.76613817986411   10.88070364163988   14.11403779828464
C         8.64653659471097   10.94630681874954   14.41759947206600
H         8.72201456323830   11.25721686056872   15.44886023830090
C         7.39950000873960   10.75282636402811   13.84549528945637
H         6.50436794544992   10.91349019689827   14.42846729533297
C         7.29300642417884   10.34930870162198   12.52722698275399
H         6.31637266855106   10.18764494401824   12.09121376836160
C         6.74481293844852    8.90241851108570    9.81087548670218
C         5.92929953936698    9.20669978656396    8.72623189402760
H         6.21977357873554    9.98345935464446    8.03146083394712
C         4.74872723445987    8.50967626244695    8.53567159208621
H         4.11867162930972    8.74823582785507    7.69181432135320
C         4.38294650376081    7.50335767719373    9.41421565007949
H         3.46573389356781    6.95640084335893    9.25608084241542
C         5.19969800005936    7.18799652075528   10.49055736847641
H         4.92217743027435    6.39474474954877   11.16932533101969
C         6.37980248990220    7.87861402102504   10.68587500919882
H         7.03778993052433    7.62767450721844   11.50854689889604
C         8.28224736170428   11.23213364514602    9.14427846596053
C         7.27366731562694   12.12732542076652    9.49623976509453
H         6.57538644583982   11.87057387057825   10.28048381567527
C         7.17147783785169   13.33984536022315    8.84343102330435
H         6.38925515687770   14.03206249761630    9.11796693553089
C         8.07247080165637   13.66955409040233    7.84169799365417
H         7.99039231200947   14.62014976756399    7.33639246633575
C         9.07935482333357   12.78552354061264    7.49670245997768
H         9.78967777686512   13.04467421267713    6.72646853552787
C         9.18792764788008   11.56748460847798    8.14618961416262
H         9.98949892079541   10.89326568245282    7.88591848838892
N         8.36558833042705    6.36699822036160    8.99834163057344
O         9.59912113818168    8.31886210664380    7.65605210850487
S         6.43390861016300    5.05209293908855    7.91816259790860
C         7.60247162863584    6.36389363246822    7.94212546619136
C         7.06432168941201    4.49135013781196    9.43436220751969
C         8.11308627379069    5.33063568705471    9.85417708796378
C         6.66340800901088    3.39729951396931   10.18187842180603
H         5.85796475480074    2.76767731609042    9.83840037446175
C         7.32943155163470    3.13922244590762   11.36295153603567
H         7.03953465265883    2.28933629192032   11.96134984211212
C         8.37723305637823    3.95575374768740   11.78576513209498
H         8.88958338898038    3.72626230733067   12.70692813134358
C         8.77753838341378    5.04604703760532   11.04543789991614
H         9.59473490668303    5.67670654784419   11.36714193378191
C         7.64124114320795    7.28839277673647    6.84018567576210
C         8.68929678915313    8.24274439277339    6.73218772853450
C         8.72144195073951    9.09638318505530    5.61948421769884
H         9.53571518088334    9.80117418465876    5.54145331000001
C         7.74087098373923    9.03050173437746    4.65708391036213
H         7.77939243740867    9.69897276160084    3.81043242837088
C         6.70490384758558    8.10853152417538    4.76831375249111
H         5.93792084336079    8.06145483500127    4.01137539050677
C         6.66596105696352    7.24755818092660    5.84130787066889
H         5.86813328672425    6.52363441281518    5.92784249974364

