107
CSD_code = VIXZOR | q = 0 | S = 0 | Stoichiometry = C54H46O4P2Ru | MND = 6
Ru       10.68937026333961    0.01837004890015    1.40788523876979
P         9.11636208124312   -1.39206506971637    0.61924895979791
P         9.29935820325408    0.78697625894195    3.01162269448115
O        12.40295092003984    0.92729897501161    2.27533713545586
O        11.87635584893573   -1.12749252572027    2.75231309793337
O        11.97557467815794   -0.24779971183268   -0.26090607912849
O        10.53376051230293    1.37785710301687   -0.22696674817257
C        12.70115359335532   -0.16959710512945    2.80727215727781
C        13.98902983323552   -0.34086006515026    3.52073215663183
C        14.88946184543877    0.85312969472116    3.58387582936951
C        14.28243428346777   -1.52500877888438    4.06294167390796
C        15.54507839146072   -1.80823175986257    4.80358244130647
C        11.53211414909021    0.81471951648176   -0.76178605603516
C        12.14904954765011    1.39436411871319   -1.98057774299383
C        11.53485485605003    2.65809052136722   -2.50664886706810
C        13.19450254432685    0.76303442329569   -2.51728187626500
C        13.94763889584934    1.18318065528302   -3.73012874317436
C         7.72316458004322   -0.94527823455166   -0.46745815708444
C         7.65695737929553    0.32595763720409   -1.02409583916061
C         6.59306101357076    0.66855420403532   -1.83968061669405
C         5.59925792287035   -0.25691126398747   -2.10986880184613
C         5.66625413700601   -1.52845914675775   -1.56256137032982
C         6.72051128729793   -1.87304411064620   -0.73859285076675
C         9.93491576759330   -2.74664426882906   -0.27659973347553
C         9.53406283556558   -3.23651415747895   -1.51435522950768
C        10.28940972331090   -4.20798077193308   -2.14973120103119
C        11.44773162390954   -4.68904035775261   -1.56425100888817
C        11.86495274817854   -4.18590298579660   -0.34139088083922
C        11.11974063880163   -3.21291606614594    0.29581328231679
C         9.83472866536164    2.45827679448066    3.49123404432603
C        10.26179262615423    3.27373481921363    2.44173042380137
C        10.76620681588592    4.53374888279697    2.69842362023395
C        10.86783537257310    4.98654912034806    4.00499410662776
C        10.47209563857102    4.17063406084804    5.05072696186241
C         9.96104530777602    2.90787332217688    4.80064697277806
C         8.95175173577985   -0.01864760804644    4.60974932360918
C         7.94814604749001    0.47997441674874    5.43694758579931
C         7.68445460554869   -0.13104110493714    6.64772268890372
C         8.40950780180635   -1.24698472387998    7.03493446162270
C         9.40477457276848   -1.74737722321398    6.21288468243784
C         9.68088834952962   -1.13362404125772    5.00377752707404
C         8.23916457111870   -2.17812325156371    2.01424585719307
C         7.25694519821087   -1.46807751871954    2.68652017985277
C         6.63603816836969   -2.03332859799876    3.83417281921822
C         5.61585796102636   -1.36456886586194    4.54593396619440
C         5.04247353022822   -1.92937350157185    5.65007982923709
C         5.46759780511912   -3.18352436850715    6.11149353516718
C         6.45818577884458   -3.85323359431388    5.45125101818355
C         7.06174844511960   -3.30352782633435    4.30198710347674
C         8.07487171035919   -3.98777468604092    3.59982371450277
C         8.64216528595933   -3.44247958471947    2.48580074237546
C         7.60721447553987    0.98005755041150    2.35270524632538
C         6.80815141886124   -0.14210411760463    2.20107244590990
C         5.52054277215441   -0.01903764279399    1.61062008619761
C         4.65638171802224   -1.12443951107451    1.44930427252330
C         3.42669022866621   -0.97724445351377    0.87221131649635
C         3.00109488031161    0.27705788328522    0.41142794212549
C         3.81641006704953    1.36493927730791    0.54360015588968
C         5.08608323863054    1.24904257717316    1.14524284994585
C         5.93437216783861    2.36397978856252    1.30299720554303
C         7.15655808857699    2.23298833889410    1.89434858017378
H        15.84835424373194    0.63579830155912    3.11350712780973
H        14.42220473205322    1.68942699258302    3.06974371542404
H        15.07871650070344    1.13359479978164    4.61991937291808
H        13.56609690767440   -2.32856760291212    3.96413421059010
H        15.58767017594022   -2.84362575786323    5.12897185507742
H        15.62314833925981   -1.16222400291464    5.67882613270747
H        16.41052293688773   -1.60146600008595    4.17345004976537
H        10.69273738857513    2.93684448386464   -1.87803781514567
H        11.17954308135893    2.51841196601864   -3.52679110716846
H        12.25993947546548    3.47100047472061   -2.50194388524127
H        13.53876469923898   -0.14364831792326   -2.03583402650135
H        13.54173799281292    2.09211176273875   -4.16387823518234
H        13.91690901344752    0.38934576815726   -4.47661730872131
H        14.99458010676405    1.34952175940720   -3.47567296622770
H         8.44058168827262    1.03730660687661   -0.79967201973301
H         6.53723658111038    1.65996266086435   -2.26498566223834
H         4.76831585639454    0.01106934421345   -2.74588201957495
H         4.88981240052884   -2.24920940325547   -1.77466351744344
H         6.77120065653353   -2.85784814177093   -0.29277268833981
H         8.64140714434995   -2.85536149388384   -1.98933812258386
H         9.97385270071702   -4.58447228499905   -3.11240423738110
H        12.03398840319978   -5.44424119714041   -2.06775628795502
H        12.78064612506798   -4.54454267165742    0.10631392870359
H        11.45624168868458   -2.78612137033326    1.23372261167459
H        10.21118676940567    2.89628459080001    1.42704643014327
H        11.09418743366941    5.16101172953529    1.88200504628097
H        11.26995629801741    5.96863319834381    4.20818028475183
H        10.56951030708936    4.51441627738192    6.07072900826567
H         9.67317590251066    2.27275665874688    5.62617941188291
H         7.37499487005323    1.34136808474470    5.11950841954199
H         6.90761160539167    0.25791689662258    7.29007844653995
H         8.19391277939095   -1.72711724246979    7.97822738975729
H         9.96630246798493   -2.61936350069468    6.51479773321164
H        10.45277513820669   -1.51458791269351    4.34857314000043
H         5.28826119141629   -0.39495705242074    4.20315393699107
H         4.25890671117558   -1.40743467788532    6.17961233822725
H         5.00756318893909   -3.61227273295015    6.98975834481380
H         6.79605191918405   -4.81942979812992    5.79830687019942
H         8.39094709587915   -4.95758372531263    3.95740162710798
H         9.40897899551354   -3.97888261169755    1.94627614459887
H         4.97917457628299   -2.09518577264310    1.79344663487879
H         2.77479478679337   -1.83154101735549    0.76236246687265
H         2.02800305797921    0.37408141249061   -0.04737109148026
H         3.50060202750228    2.33628565198772    0.19023658612824
H         5.59561819807616    3.32849199730101    0.95194261250644
H         7.79503068606228    3.09481148206920    2.02325498386382

