62
CSD_code = VIXZUY | q = 0 | S = 0 | Stoichiometry = C31H23Cl2NO2PReS | MND = 6
Re        9.95541163337303    7.83473714861716    9.39126214384626
Cl       11.67551318759818    9.35440912453424    9.41009604976708
Cl       11.41051280802688    6.22970566335341    8.56170147011256
O        10.06675346770910    7.46088336833651   11.00165816454335
P         8.23348580554454    9.57822096741632    9.98347531978229
C         6.59882873471379    8.81717665560634    9.80140120406782
C         5.75486588868150    9.07596224697909    8.72700220799810
H         6.01195896859068    9.84091032252781    8.00712461305919
C         4.59019245343095    8.34314854961500    8.57464758403126
H         3.93712164830736    8.54716872417213    7.73919249863648
C         4.27077039998328    7.34330708492190    9.47809209360541
H         3.36656999228320    6.76791231791991    9.34787783499184
C         5.11868282569909    7.06996052911822   10.54183613468878
H         4.87876742373889    6.27925740091055   11.23753460197258
C         6.28112456818606    7.79865192381673   10.70095868075083
H         6.96784466084667    7.58128204532726   11.50942459370890
C         8.16582956731978   11.13216597086705    9.04506381024090
C         9.22011239006284   11.49480929343320    8.21532714424590
H        10.08835590327788   10.85460580124578    8.14021042852366
C         9.16241356801709   12.68769364677423    7.51454855671261
H         9.98124316841404   12.97003135437908    6.86987654521083
C         8.06335708391239   13.51934628867820    7.64459599979384
H         8.01941997116801   14.44827040567367    7.09558588661746
C         7.02127812541034   13.16781463020294    8.48946931545560
H         6.17055096816195   13.82386731154580    8.60173921042112
C         7.06997038290967   11.97972585799599    9.19297384259693
H         6.26281382444930   11.70706563402990    9.85858262396372
C         8.30396461329186   10.14796525462906   11.70532133499960
C         9.56648654093942   10.32987986735113   12.26294535083779
H        10.44443247817929   10.08581803387450   11.67933075935678
C         9.68228395753753   10.80045700251939   13.55813202760448
H        10.66040188763299   10.93641482701418   13.99359916176873
C         8.54572003595650   11.09001480651477   14.29635700192052
H         8.63677245897752   11.45403840139567   15.30897062805853
C         7.28967191863483   10.90786633279128   13.74054314492912
H         6.40451069325119   11.12951266390466   14.31876257532062
C         7.16287626337040   10.43875689260543   12.44542467105414
H         6.18117072314365   10.28664230069348   12.01817878648191
O         9.51076720303974    8.29759236247912    7.64751913738861
N         8.28902684823253    6.27994698885699    8.93102420649761
S         6.35365238675967    5.00518600715398    7.80823425307623
C         7.51602853371022    6.32138521766200    7.88165229113772
C         7.00053433205750    4.37705384420094    9.29012917152457
C         8.04997967494290    5.20092866465324    9.73786366042895
C         6.61099155270300    3.24611774700757    9.98770960649680
H         5.80423483691116    2.63063218031867    9.62242010124891
C         7.29058532422320    2.93377356627248   11.14776209621527
H         7.01021120285212    2.05468522157420   11.70747654416867
C         8.34067668822579    3.73335273679796   11.59703615628404
H         8.86400749916828    3.46080812321902   12.50020419689267
C         8.72949022353475    4.85997850430805   10.90581673796162
H         9.54803134342430    5.48019630026865   11.24226733566080
C         7.53506416884073    7.29514208340911    6.82382116291296
C         8.58062984902508    8.25752994157329    6.74541703880745
C         8.58294006557045    9.16405987850691    5.67170235519001
H         9.38879124971636    9.88021603614504    5.61945465512836
C         7.58626188606020    9.13976701684407    4.72511395487880
H         7.60350757476300    9.85084000404893    3.91287944277931
C         6.55778666987475    8.20525323700171    4.80765200235879
H         5.77837988149705    8.18985204568843    4.06211545387089
C         6.54328328718483    7.29485222325010    5.83902577305491
H         5.75059672691454    6.56299341744313    5.90487866433456

