62
CSD_code = VIYBIP | q = 0 | S = 0 | Stoichiometry = C31H23Br2NO2PReS | MND = 6
Re       10.74345510375137    1.88195748875894    9.12871706965635
Br       10.66409714679189    3.31529455256342    7.02649301270115
Br       11.13504550157504    0.43256596628888   11.19562015178902
O        10.25564501249683    3.15547046932658   10.06001481248679
P         8.45563655066855    1.05549272271923    8.97804533638468
C         8.41586777624443   -0.59172368728529    8.21750032983781
C         9.15933237822565   -1.59889060000203    8.83379162690541
H         9.71020359685444   -1.39002258684750    9.74061168599530
C         9.18880625336925   -2.86903778753454    8.28938445257437
H         9.77122524379929   -3.64154107880272    8.76850528716199
C         8.47901061798876   -3.14531994105300    7.13074920539025
H         8.50999396688148   -4.13535045362211    6.70066688266071
C         7.72650618633946   -2.15125036726375    6.52711503048549
H         7.16429901389788   -2.36619897480510    5.63040839751419
C         7.69048688279159   -0.87604341187161    7.06529675212942
H         7.09311030293734   -0.10968423070677    6.59381257349239
C         7.30347152822922    2.10558825045372    8.05486704680158
C         7.51111476643912    2.31930203749279    6.69233592686103
H         8.34923956974211    1.85908366289718    6.18992285551288
C         6.66099351524012    3.14887546691988    5.98601687535704
H         6.83473760517149    3.31833759123066    4.93463012714827
C         5.60442699558783    3.77214773829970    6.63006788294272
H         4.94603885425778    4.42597183999681    6.07807923042911
C         5.39896427389198    3.56623987753654    7.98436469016787
H         4.58031516136936    4.05710367544854    8.48937210349571
C         6.24582388754734    2.73964005851144    8.70048605549406
H         6.08821897891100    2.58773065922850    9.75856874038517
C         7.69056286957773    0.83387978277821   10.60666357393677
C         6.81880769071190   -0.22335219144210   10.84540901684439
H         6.60733273104973   -0.94001117632532   10.06406834111763
C         6.23080529597607   -0.35589006639837   12.09045917132527
H         5.56029456012939   -1.18103235100467   12.27909203751596
C         6.50507992766984    0.56004718075037   13.09265780316396
H         6.04986248937906    0.44561613760844   14.06490404406421
C         7.36776346345803    1.61799826922485   12.85309743856198
H         7.58581969836211    2.32831187526737   13.63573725222640
C         7.96076968231886    1.75740789907092   11.61279677784579
H         8.65092528771451    2.56978274754042   11.41659105241746
S        15.54767154756087    2.09444123118771    8.48535542923011
O        11.29505557288482    0.50848857954821    8.09513726606957
N        13.04893109460860    2.24764318538605    9.08099262875323
C        13.87607028910793    1.58011453286200    8.32447612805242
C        13.65932689174219    3.20462233473658    9.84350024271798
C        15.05202751017431    3.27603484118132    9.65554384099161
C        15.83247585205472    4.18639371528949   10.34758929291899
H        16.89831075643393    4.22407761628720   10.18746362845968
C        15.20534484021077    5.03202001605511   11.23986891786869
H        15.79183758188488    5.74938268934977   11.79296532313151
C        13.82643210605641    4.97115079374486   11.43637979321877
H        13.36182450407397    5.64354426572877   12.14062488664416
C        13.04638865514553    4.06787555594780   10.74960104655713
H        11.97596527677866    4.02021611604106   10.89688283065512
C        13.55336801431933    0.49927211746565    7.42782307109062
C        12.22999382742058   -0.01438458658356    7.35749198454642
C        11.95161250189253   -1.07612845542537    6.48622857169135
H        10.93874978744644   -1.44983796130654    6.44601032794249
C        12.94540997263085   -1.61540174615267    5.70214911508829
H        12.71319024286982   -2.42985549705630    5.03278587359541
C        14.24168491344284   -1.11594438507830    5.76681224601045
H        15.01707521610787   -1.54117688000187    5.14930719497171
C        14.53590919199609   -0.07548948872552    6.61882633798791
H        15.54205348601615    0.31564436484923    6.66816337101282

