65
CSD_code = VIYBUC | q = 0 | S = 0 | Stoichiometry = C32H16AgBr4N5O3S4 | MND = 4
Ag        9.07179052745822   11.05135468041685    4.92910518636728
N         9.82168049386398   13.28259781069767    5.07620670072853
C        10.69494574102672   13.56941883989846    6.02266676256050
C        11.17198869028830   14.91218953805597    6.18489886841804
N        10.85657564882347   15.84373494564259    5.31356128160487
C        10.01684474413690   15.54803298798533    4.31155059588042
C         9.67045686585917   16.52473244675432    3.35717362419361
H        10.13411897839577   17.49490879702815    3.42952668645513
C         8.76475486200829   16.22140116363016    2.37823624213853
H         8.49610440359367   16.96552098978664    1.64434038241432
C         8.17253681647974   14.94706425330552    2.30693758526736
H         7.46221249116616   14.73771618271112    1.52215995207963
C         8.49454417577219   13.97297468884548    3.21228708292663
H         8.06509681364618   12.97631715130786    3.16804534814543
C         9.43061880346755   14.25228631804065    4.22217013999599
S        10.04166704009946   11.26648339572878    7.38064322280066
C        11.17076281368254   12.45844766571304    6.81834386893660
C        12.46096056153269   12.12033924507571    7.13885689883880
H        13.31211844705593   12.71972961189364    6.86920447235138
C        12.56251114296217   10.89294457050445    7.81112876325030
H        13.48722774307131   10.45067065960572    8.13427499134739
C        11.34175671868344   10.31283616083886    8.00126765243113
Br       10.99340696215980    8.69009575536976    8.86896444303219
S        11.95188211546664   14.57393094724836    8.86264253218371
C        11.96886471710055   15.35374240796781    7.30832745550727
C        12.72838838986669   16.49618353909004    7.33509289830300
H        12.84906379548073   17.12030198993574    6.46928352047441
C        13.32140422037208   16.74895670490858    8.58168391046625
H        13.96021620644208   17.58588710859297    8.79592062713887
C        12.98326903054515   15.80377166970380    9.50487306990438
Br       13.53646861757401   15.72785395605685   11.29445647858239
N        10.13704192377312    9.01639421238821    4.43337011286959
C        10.74223354359955    9.23795253060638    3.28214302604368
C        10.71181414553285    8.26956789756936    2.23467742517663
N         9.96601635887112    7.19154350940870    2.34118626947163
C         9.27402399102502    6.98671037102430    3.46833121361807
C         8.40541923536877    5.88301678889947    3.58015583990279
H         8.29488459928695    5.23588324161175    2.72507189335703
C         7.72193499460400    5.67731152535578    4.74568554291550
H         7.04316854192123    4.84255898028077    4.83258052492188
C         7.88081812314011    6.54423021831930    5.84162420567217
H         7.32458059555361    6.35777465339308    6.74730832920308
C         8.71279386326417    7.62674097578901    5.76400695826976
H         8.82032481140955    8.31877303766700    6.58804174555997
C         9.40975908174081    7.88161586937923    4.56997957778361
S        10.80193602701457   11.63936580678491    1.90195341027503
C        11.35110394694930   10.55763588924964    3.13984988992552
C        12.32399373753528   11.12153609114389    3.91974188265111
H        12.80850954604255   10.59551898649172    4.72327979275466
C        12.66564147818128   12.42965802430883    3.52154043783679
H        13.41814149669063   13.03575646457305    3.99262802298362
C        11.92707083680021   12.83474884434526    2.45235326819410
Br       12.05029289380771   14.49062644212280    1.58480375930027
S        10.99703901420079    7.35890043763014   -0.29833264063999
C        11.47602870420334    8.38266808224825    1.01735392942656
C        12.58955214763640    9.12259754395073    0.70779862159295
H        13.07463060324365    9.79274937489141    1.39396802702426
C        13.06349162196751    8.88967939141927   -0.59249736980974
H        13.92153479552169    9.37286089438143   -1.02304817024786
C        12.30006227942742    7.96932099341040   -1.25090234907222
Br       12.57094014814481    7.36324182731736   -3.00217454777953
N         7.07992059975231    9.78342416938804    3.46892891340469
O         6.97152427336870    9.98206817347730    4.69284269197111
O         8.00347729137499   10.37990972216790    2.87269039456880
O         6.33835617062929    9.04163284670872    2.88492812616110

