62
CSD_code = VIYBOV | q = 0 | S = 0 | Stoichiometry = C31H23Cl2NO2PReS | MND = 6
Re        5.26268009175854    1.89887968427117    0.39458534610691
Cl        5.48856839790541    0.51050496553129    2.32093710932988
Cl        5.31710423850166    3.10270213419390   -1.65952277127667
O         4.81424357164301    3.23184463944454    1.26289614618682
P         2.97479570031036    1.09283584975329    0.29193204012977
C         2.94304307392201   -0.56601441529653   -0.43453833794404
C         3.64820296462399   -1.56706508629221    0.23436394832643
H         4.16699187215540   -1.32871084200058    1.15430446453038
C         3.68959431237268   -2.84554678359842   -0.28903949651086
H         4.23939308176614   -3.61869638432131    0.22661985732669
C         3.03432100528664   -3.13219450049128   -1.47771015530603
H         3.07298134055839   -4.13032988094206   -1.88857153897046
C         2.33359806222332   -2.13830900889372   -2.14115138027568
H         1.82422112098252   -2.36104503294839   -3.06719590076592
C         2.28554633634869   -0.85394404933545   -1.62504894382924
H         1.73886470718745   -0.08020182067600   -2.14457749769663
C         2.23035352832042    0.91820684886550    1.93410086868257
C         2.50817129240211    1.88343213159529    2.89766145196932
H         3.19573744622580    2.68516746154356    2.65585881240816
C         1.92791990562252    1.79256210012994    4.14868360659281
H         2.14906171646328    2.53537000213428    4.90001043505117
C         1.07111733764470    0.74253898052668    4.44094798478776
H         0.62427377717310    0.66784677772070    5.42122863308846
C         0.79161380565022   -0.21618828954565    3.48114668280969
H         0.12617962794724   -1.03517787745959    3.71129768707703
C         1.36702240782195   -0.13244394215453    2.22553271036425
H         1.15157802261840   -0.88123277692801    1.47593475088997
C         1.80787685633177    2.10023642074827   -0.65793879721089
C         0.61441784540333    2.54691854638100   -0.09946219970790
H         0.36996284624327    2.30097239089662    0.92390527728810
C        -0.25510074936603    3.30986725416705   -0.85857357494532
H        -1.18018992206974    3.65792225524047   -0.42324272729563
C         0.06057881670015    3.63217254449999   -2.16833342688725
H        -0.61982038644987    4.23224210439876   -2.75419318336056
C         1.25299342041779    3.19499247558693   -2.72322106198259
H         1.50732850937303    3.45655483710990   -3.73915156796076
C         2.12851178364542    2.43177129686082   -1.97351833670696
H         3.07664820100079    2.12170997625918   -2.38913744425885
N         7.54129390472986    2.20918932764671    0.35935875849190
C         8.34462087438808    1.56589514714753   -0.44345174319808
S        10.02251848015632    2.06911390807759   -0.30840226483884
O         5.77297167884125    0.46026603152566   -0.59168570423015
C         9.56527927513596    3.20913469624672    0.91724962344991
C        10.36973716115783    4.09132212868332    1.61895743146505
H        11.43072374690524    4.13064042916958    1.42978155831414
C         9.77217189411773    4.90682741413253    2.55841271214709
H        10.37730324647084    5.60195983796142    3.11990034494381
C         8.39895060739390    4.84261324087985    2.79131023531793
H         7.95751434467948    5.49089055161872    3.53224261601359
C         7.59558193570999    3.96647869526738    2.09527525906260
H         6.52956200657071    3.91286697652937    2.26671436495099
C         8.17779405569868    3.13521117240772    1.13994233655851
C         6.68047945649908   -0.01989039802428   -1.38521889369183
C         7.99867474228218    0.51397199156065   -1.36268095476804
C         8.95328539847621   -0.01676726059446   -2.23447991035561
H         9.95324035992437    0.39334421495888   -2.22013162790077
C         8.63894283600252   -1.03559750156578   -3.10444910083322
H         9.39103530034084   -1.42572742304212   -3.77208641092822
C         7.34973154862633   -1.55893281412502   -3.12187509620596
H         7.10157401503016   -2.35713493539208   -3.80533989647511
C         6.38542486027205   -1.06427111929990   -2.27494992465180
H         5.37890230380669   -1.45575529872018   -2.27951318259444

