63
CSD_code = VIYCAI | q = 0 | S = 0 | Stoichiometry = C31H23Br2N2O3PPd | MND = 4
Pd        7.32010349222277   10.18573973336117    3.00891163224105
Br        3.21542211779773   12.01173223780160   -0.27431901053185
Br        1.35825389298809   11.83183041744485    2.95448468397398
P         7.61877944284490   12.37497551542880    3.24152073366857
O         6.05179851186980   10.79837348389264    0.84248796268617
O         3.78202684251427   10.54866809999840    4.74369091198473
N         5.21240748327619   10.48492816333904    2.94122969055634
C         8.61912766378057   13.17846649414052    1.95752875413535
C         9.25405871137882    9.70118194083153    3.11517631930357
C        10.39906226082377   10.45284980728452    3.35920669683376
H        10.32479417282980   11.52164797808278    3.53243760184489
C         4.39511244055282   14.54313523432456    1.99463200255597
H         4.03024466322955   14.94888480001630    1.06234795414631
C         4.09579911385728   14.11768835331282    4.33796535012344
H         3.49540245237310   14.18832267944176    5.23255179577938
C         3.09213677048072   11.31198354024176    2.54401139343797
C         8.82806348727816   14.55369904407584    1.90036660614149
H         8.38153475449935   15.20147822899365    2.64232593408868
C         5.61720069716704   13.89440667612345    2.03024159036559
H         6.20184709547595   13.78548522319683    1.12623800277578
C         3.75387953741167   11.37819382786862    1.38813302697109
C         8.30380892146709   12.69732045979230    4.89882838211306
C        11.80740521399421    8.50164602548902    3.15873383750608
H        12.79082000130652    8.05622100904888    3.17314616865228
C         8.43506236870666   11.84789310641363    7.14733121540852
H         8.19997010588868   11.08736736560897    7.87681030784664
C         5.13865094702506   10.85854091923034    1.65253228122265
C        10.69432428610141    7.71993529887290    2.92406190265899
H        10.77906250947613    6.65682390439080    2.75413273457877
N         7.07727965884587    8.16457016481524    2.81801012378308
C         9.17101715531875   12.96295356420065    7.51913317317190
H         9.50884973151228   13.07086748765303    8.53905245286985
C         9.43643762510535    8.31907415851783    2.91175099754792
C         8.00894498995014   11.70983717559907    5.83999902150205
H         7.44062821781730   10.82603212869300    5.52322175897724
C         3.63199528179763   14.65271378755633    3.14602369171270
H         2.67063362320348   15.14298651081168    3.11167321416934
C         9.48124005395634   13.93460323831872    6.58269611621702
H        10.06381245276648   14.79687410076111    6.87213222301628
C         4.04344059289685   10.73395085764497    3.58068374649110
C        11.65423045327500    9.86209161737374    3.38348900282707
H        12.52480179788351   10.47239689300575    3.57792937539605
C         9.57904541857330   15.09128031208405    0.87063691657260
H         9.74631756723105   16.15766202842725    0.82799977781948
C         9.12075855640448   12.35647586819448    0.95151918740111
H         8.89972894925100   11.28925358965311    0.98389776568217
C         5.32080136951328   13.47697117416304    4.38288256417532
H         5.67553128609619   13.04716133596180    5.30993139663403
O         8.17379079037627    6.25779194011016    2.47308196707307
C         8.21159608971219    7.57355551470123    2.72203335294095
C         9.86442668684671   12.90231876086549   -0.07911045221271
H        10.25179456124387   12.26621793595822   -0.86080395852182
C        10.10485171774621   14.26683310053584   -0.11195684682312
H        10.68839274347455   14.69334263625720   -0.91433618722361
C         9.04682888799227   13.80852496740332    5.27361035617794
H         9.30121310648579   14.56589768874110    4.54774668836094
C         6.79651840924249    5.88919679337079    2.36652430083362
H         6.58447121193281    5.13136186989705    3.12502367184471
H         6.63108776983062    5.46318151305663    1.37374745077944
C         6.01829344017660    7.20653274115454    2.59557863754844
H         5.42235134459147    7.49931197104678    1.72448688918704
H         5.35968459231574    7.16676469694801    3.46913489466418
C         6.09424390807856   13.36939230842283    3.22953026628743

