59
CSD_code = VIYDIS | q = 1 | S = 0 | Stoichiometry = C27H23ClN5O2Ru(1+) | MND = 6
Ru        4.43925961763741    5.54978056384003    3.72821447401739
Cl        5.41055169375770    7.68228342132542    3.85454721054100
N         4.11533373701906    5.65565204010321    5.71004212588765
O         1.23199362640572    0.34420145324982    3.14585730694746
N         6.12295097209483    4.95084339489281    4.31665177702169
N         5.31878644853972    5.32732921086459    1.93288867491578
O        -1.08192577086023    7.37214223494700    1.73558875307301
C         5.56745773605357    5.46649138574233   -0.43575323902995
H         5.11696907493588    5.68731887662709   -1.38945985578834
N         3.43337087268109    3.81327209245329    3.55511569143898
C         6.38252584604267    4.94751596393944    5.63576216235583
N         2.64081515734673    6.20373762107728    3.09214197594155
C         2.15436527339410    3.89554891104411    3.12542707679707
C         1.08686160857881    7.88633699176763    2.43188915971218
H         0.86192633937368    8.92697544837382    2.27148937504361
C         5.22111185708035    5.34129111205744    6.43204388739065
C         3.93268060569570    2.60354980502554    3.82985831518924
H         4.96013290762939    2.57332486485405    4.17157036801162
C         1.70236756244965    5.26096640562810    2.85575332239510
C         4.82235929701229    5.57413934564723    0.72353026335912
H         3.78341716337266    5.88116676998076    0.68448949765367
C         1.88220814235882    1.50353227205132    3.25365029154223
C         5.22497536614470    5.43150436836429    7.82295588992492
H         6.11500431466684    5.17943553185107    8.37549170721967
C         0.42724603198683    5.58702489896122    2.39711269882977
H        -0.29303101038289    4.80788632170559    2.21705441650512
C         2.96636288997837    6.18402475926675    7.73294374737994
H         2.06204081159916    6.53105229733064    8.20520803449748
C         3.21504173231389    1.44271613698776    3.69884425509676
H         3.64887381955674    0.48472021030100    3.92948228591372
C         7.66108567503493    4.64913830057223    6.09843842617204
H         7.88083889288427    4.64548850171752    7.15282630859519
C         6.62051360003709    4.95683439683939    2.03766506785633
C         3.02771802120126    6.06599886415662    6.35706591503435
H         2.17117153453265    6.31969911129936    5.74288767551725
C         8.66126248299546    4.38113011073568    5.17475503854571
H         9.65838916250887    4.14913750077976    5.51252300458835
C         2.32052517010174    7.48539148097146    2.88039123928094
H         3.10535125080764    8.20396581502938    3.08561575827586
C         1.35997160381499    2.76294557759873    2.96626892579811
H         0.34567146930652    2.86803011114743    2.62253802110202
C         0.09668330655243    6.92257505961942    2.17426138093518
C        -2.11939028163018    6.45663191090473    1.44901179920691
H        -2.41429512174200    5.89661763123896    2.34080690616537
H        -1.83062338349157    5.76442158984510    0.65311943538375
H        -2.95750324016047    7.06280097379387    1.11181286067137
C         7.09250548644241    4.75313659202576    3.40654947694711
C         4.08903958339259    5.85880295311403    8.48353971220520
H         4.07860065316600    5.94475940152256    9.55835252013605
C         6.89864523199191    5.08081986243472   -0.34256754893864
H         7.51074503876412    4.99134990941932   -1.22577070165454
C         7.42607523822220    4.82238767124426    0.90816145952225
H         8.45733131663325    4.52909865786815    1.01527296343581
C        -0.11174852802613    0.33198729389388    2.70507951189430
H        -0.75831087483589    0.89229557730698    3.38578097331343
H        -0.40878110459093   -0.71460441097425    2.70630278659230
H        -0.20092583759407    0.73218899477476    1.69154407421335
C         8.38803868781323    4.45053099037302    3.81606473971772
H         9.17308124141837    4.29247486048295    3.09581061970676

