27
CSD_code = VIYDEN | q = 0 | S = 0 | Stoichiometry = C10H8ClN4O3Re | MND = 6
Re        2.31459179724030    5.51188681018970    7.01573451970427
Cl        3.04832789352778    5.10247201718071    9.21637703285971
N         0.85996624361174    6.79113354640195    8.11390413997449
N         0.85120273101669    3.93522858489388    7.58914267585067
N        -0.43071746524255    6.48713169553715    8.29231184605441
N        -0.43717091028919    4.16464589176852    7.86783884056976
C         3.59022679021237    4.22524900167128    6.30926544408791
C        -1.04107549208740    5.42714506197099    7.53509824017877
H        -2.10977450577090    5.38910390466384    7.75977361064791
H        -0.88705313451028    5.62282513934830    6.46172890404834
O         0.96594148112088    6.02333840418389    4.28051227370640
C         3.60268039344703    6.95510059240300    6.81688645324702
O         4.35456292291754    3.43909285301156    5.98402258749045
C        -0.98082834525006    7.26455761328348    9.24885296288557
H        -2.00877112757743    7.16431215072202    9.53344042403800
C         1.12482018532938    2.72171842024746    8.02750514926984
H         2.10907478686073    2.30647047070681    7.92657989668639
C         1.13959516279805    7.76986894844584    8.95259896166260
H         2.12690672569427    8.18665427306233    9.00617550202552
O         4.37477635757477    7.79847201891504    6.79785470432682
C         1.48561267170221    5.83398217265058    5.29386827155636
C         0.00346278055412    8.11090536203376    9.69505934679357
H        -0.07587489502400    8.86482290534802   10.44975814199887
C        -0.01276157846690    2.14776154346207    8.60609867552721
H        -0.09644451027719    1.17663682369864    9.04675066347916
C        -0.99149410605706    3.10327046599415    8.49095349549652
H        -2.01828285305481    3.10311332820487    8.79660723583309

