51
CSD_code = VIYFUF | q = 0 | S = 0 | Stoichiometry = C12H28O4P2PtSe4 | MND = 4
Pt        2.63283809181806    4.25607223503885    0.02096689946220
Se        0.55714818189744    5.70202482199685   -0.03852930228562
Se        3.85236126110817    6.12628186385000   -1.17263997555500
P         1.75963623532296    6.20120329627667   -1.79150773272101
O         1.34473033102588    7.55414112835717   -2.49054814373333
O         1.44889705703352    5.28343798086706   -3.03672137028552
C         1.44322644049907    8.77315699567345   -1.73630268085052
H         1.82203119827822    8.53487529034048   -0.73024559889430
C         2.42952017137564    9.68659505798763   -2.44557775840569
H         3.40476614951158    9.20654516767922   -2.49878588398836
H         2.52453378056780   10.62271444081545   -1.90319401751015
H         2.08326422725499    9.88870899977083   -3.45585000500967
C         0.05034913249313    9.37117378170063   -1.62423074337198
H        -0.61092934242519    8.67341361991584   -1.11402077878276
H        -0.34695319162528    9.56807496887786   -2.61660660039043
H         0.08898916055122   10.29894539864367   -1.06090804718835
C         1.64750022256585    3.86235163264062   -3.01329251711710
H         2.01147677274278    3.55630934652994   -1.99991562773501
C         2.70997097729977    3.51077578202293   -4.04071592365961
H         3.64456449438545    4.01148904599013   -3.79526849100785
H         2.38955066793847    3.82873732203275   -5.02985956361650
H         2.87867598887759    2.43781687246465   -4.04179628992633
C         0.30988437218240    3.19147471334403   -3.27498469073464
H        -0.40500158286894    3.47536163843066   -2.50532316217739
H         0.43122101725870    2.11227185616149   -3.25885576207603
H        -0.07581849193233    3.49860218645704   -4.24404542054170
Se        4.70325342001693    2.79998647438605    0.05385941595973
Se        1.41182682299278    2.38781431920605    1.21327606075734
P         3.50999643267055    2.27740832367659    1.80551225237068
O         3.91708465846741    0.90555831031434    2.47180786613113
O         3.84163240574382    3.16855131270863    3.06430098357073
C         3.78449446397848   -0.29453961984930    1.69211897971659
H         3.40678577016807   -0.02503543379925    0.69343199275683
C         2.77907329541841   -1.19885822542948    2.38593256942895
H         1.81618596232802   -0.69616795370092    2.45433612726387
H         2.65844325191335   -2.11999943268615    1.82333885182096
H         3.12442046326960   -1.43191315451698    3.38981027101016
C         5.16147802001613   -0.92400396566180    1.55889353294809
H         5.83695951008290   -0.23195121195936    1.05981265448963
H         5.55930080355368   -1.15227769085185    2.54428331409765
H         5.09648585922314   -1.83805659909247    0.97587917929312
C         3.66485645779416    4.59296304730002    3.06188527759052
H         3.26955621160533    4.91553911995153    2.06525515750714
C         2.64492824329623    4.94777456415487    4.13039175256754
H         1.69535417235482    4.46247181952066    3.91370054875118
H         2.99637901268507    4.61432338238869    5.10380572979948
H         2.49193743893537    6.02290685364706    4.14923435284693
C         5.02061005793764    5.24161618453332    3.28348611247429
H         5.70297362551781    4.95930244286853    2.48417372439346
H         4.91435650009934    6.32252417779237    3.28691911416831
H         5.43699381678974    4.91500751119189    4.23331336631739

