54
CSD_code = VIYFUH | q = 1 | S = 0 | Stoichiometry = C24H21N5O3Re(1+) | MND = 6
Re        1.57863566022414    4.63335554307965    9.06838037092695
C         1.05019098836845    6.20208952274187    8.01116139570745
O         0.78673126466475    7.14402666614897    7.42703045828283
C         1.38684255246806    3.50195403936853    7.48965979446219
O         1.33625887830668    2.85318764166014    6.54854304388164
C        -0.25899165543766    4.32003136502172    9.65276621016831
O        -1.32343872667596    4.13635378149488   10.02628051228049
N         2.74498690611995    1.92522966043967   10.46477767745345
C         2.41680655863498    3.22297956120423   10.42153320090013
N         2.90830177133189    3.75765049158530   11.57880641728049
C         3.53523112458715    2.78674678187196   12.32627830752864
H         3.99233290930988    2.96924648989567   13.27547267423264
C         3.43583840416980    1.64006592574573   11.61944648604009
H         3.77624088188002    0.65205825548035   11.85129917621417
C         2.41842208626502    0.96405757996825    9.47619587211869
C         1.11753190694537    0.88276957945753    8.99672610632555
H         0.35789059501330    1.54346166171434    9.38800496990526
C         0.81036291565169   -0.05662426735371    8.02846472852358
H        -0.19844765418143   -0.12236580128485    7.65364896979661
C         1.79041598541659   -0.90882509989193    7.54717033807395
H         1.54638696095280   -1.63956324918436    6.79245694175123
C         3.08433017453368   -0.82737169784623    8.03548316111014
H         3.84834403362666   -1.49160738159722    7.66254276868374
C         3.40455673903934    0.10820180192686    9.00288708935654
H         4.41457727091310    0.18360981200962    9.37964802902930
N         2.04988677482326    5.78416122528853   10.91095531901441
C         2.70370728385696    5.10466103483280   11.86643122545211
C         3.12504947332136    5.69559842291627   13.05191597545908
H         3.65000941936343    5.12129857788700   13.79672292115585
C         2.84754261786908    7.03489684061940   13.25827603823360
H         3.15881474791685    7.51984432730936   14.16966159174197
C         2.15703046686935    7.73495894262002   12.27918345858703
H         1.91093378548685    8.77585950707571   12.40652571628725
C         1.78070356192898    7.07102796115160   11.12655033391684
H         1.23415558925148    7.58494105976785   10.34708200552753
N         3.71981705058358    5.01256469513535    8.51330982001966
C         4.50778402966957    4.04190412610148    8.02499413070251
H         4.07691751021291    3.04934280316518    7.97544070701728
C         5.78982573882788    4.24099136711891    7.58595734524688
H         6.33594973376584    3.39651105663427    7.20386103015828
C         6.36570231459867    5.53139716493444    7.61773885196331
N         7.60641438073296    5.78099936821934    7.17159668423670
C         5.53243402921096    6.53866311005343    8.15363174904756
H         5.86837413308759    7.55770870306081    8.23295194907060
C         4.26076331879044    6.23757747360423    8.56548911574712
H         3.63500557718657    7.03119647823809    8.95574324345522
C         8.40584949812125    4.72266275069167    6.59625486320315
H         8.59189178187012    3.93217256323325    7.32735784280918
H         9.36469199822930    5.12236910269289    6.27986548462604
H         7.91253057823229    4.28857165556873    5.72309315895672
C         8.13937263682348    7.12460918274734    7.19816686346642
H         7.53005515398292    7.80109481592487    6.59374603195185
H         9.14714857184814    7.12407955604151    6.79407556767192
H         8.18409971141083    7.50681746366698    8.22075627523254

