41
CSD_code = VIYHOC | q = 0 | S = 0 | Stoichiometry = C13H15CoN12 | MND = 6
Co        0.72801410806998    3.01342694883344    1.57301068049403
N         0.43358503436958    5.79751908280217    1.74716715754025
N         0.65300159312122    6.87811808569474    1.47579117192578
N         2.42957021560291    3.85210161114545    3.58687700095983
N         1.31034660842868    1.29289676565837    1.03329860177206
N         0.07278673120797    4.72688770204208    2.05705172338044
C        -1.30321333961596    1.11173712173440    5.37913635810775
H        -1.75239132927729    0.70671958079323    6.27275124444093
C        -2.31359205341036    3.08777277769449    2.32925024190069
H        -1.95643058307502    4.11730180928922    2.25445871613274
H        -3.35106278433847    3.09349996514157    2.66271323235097
N        -0.91296385856776    2.65879355259423    0.33952658490238
C        -0.88313885482777    3.75969701665011   -0.62125869926813
H        -1.33090697034998    4.64473936417844   -0.15456601089714
H        -1.45181911099406    3.52964556762676   -1.53391022859680
C         0.55003052265200    4.07227999113132   -0.95487591817155
N         1.44855993555050    3.76769267623870   -0.00861613381299
N         2.28056175853584    3.35652735516334    2.53344330599647
N         2.73759226912375    4.28411723048040    4.58843133214081
N         2.33629598099618    0.94873582664539    0.58496577273430
N        -0.15336187840507    2.20932117383368    3.09183226754015
C         0.56344725086232    1.47871952784125    3.94980161063235
H         1.60478564153633    1.32776101425659    3.70563531377211
C         0.03853712276928    0.91873072527636    5.09845046874173
H         0.67559755588429    0.34992305387804    5.75546781098523
C        -2.05850775355543    1.82659999380800    4.46773304036229
H        -3.11365940485344    1.98041982407110    4.63372256842670
C        -1.46429644779207    2.36040324040252    3.32963143242681
C        -2.22212799129804    2.42663099113353    0.94875230194002
H        -2.37544822118301    1.35000711913707    1.06311372442290
H        -3.01913823286967    2.81884906649857    0.30524748305886
C         0.91865513342773    4.65567587227746   -2.15547660541370
H         0.16270817137869    4.89190597541702   -2.88820052133256
C         2.73511983153840    4.02195220771740   -0.24096828899223
H         3.42236245019168    3.75335831993763    0.54903465441604
C         3.17915970408719    4.60216627557784   -1.41460312958141
H         4.23108553224329    4.79070927222091   -1.55139730827086
N         3.26258212670321    0.49274022803252    0.11366379093609
C         2.25518526644082    4.93334702512731   -2.39172787158062
H         2.56417067825648    5.39399644851764   -3.31692182593566
H        -0.61818240856537    1.81107261349962   -0.14563705058683

