87
CSD_code = VIYHOB | q = 0 | S = 0 | Stoichiometry = C35H47BFeS3 | MND = 5
Fe        7.81230500744153    3.77905498924050    4.65810021390129
B         9.65644615036437    1.60425380290738    5.40894225940263
S         9.64476971731958    4.38355955026890    6.00425553207355
S         6.69686961849874    1.87444613094743    5.04990664418379
S         9.27788183194644    3.07273137120257    3.05334024854943
C         9.00448101351026   -0.75614356998141    6.35152224649734
H         7.97603157223565   -0.51834394007757    6.11352750394273
C         9.29212706143059   -1.98939400059846    6.90835825362957
H         8.49477740112293   -2.69394315852053    7.10584310028140
C        10.59983786620455   -2.32377752702083    7.21303621484754
H        10.83090558014027   -3.28519970896883    7.65050006943465
C        11.60935707654997   -1.41458782388567    6.94813259964363
H        12.63608526447365   -1.66767368089371    7.17734896983687
C        11.30745343880216   -0.18484421312430    6.39106481840270
H        12.11020302988239    0.51076649779411    6.18793764619818
C         9.99911626256490    0.18176837780244    6.08331702780453
C        10.63052829689802    2.83427075977432    5.92589165157901
H        11.45373070452812    3.01352467230300    5.23916650311079
H        11.03887658426068    2.68701712657979    6.92553720058448
C        10.90163167944226    5.72052725484515    5.66014924784396
C        12.14773365606480    5.46730135690901    6.49895880102649
H        12.81740599312648    6.32218919733298    6.41685363842573
H        12.68711915377189    4.58491754421571    6.16612032852781
H        11.88363880068068    5.33861384769514    7.54651520591629
C        10.24034670150917    7.01755036841028    6.10811076138483
H        10.88991749631999    7.86426952198815    5.89471737096147
H        10.04341479814861    6.99253057408085    7.17769760523102
H         9.29993278784504    7.16758248458465    5.58824230129713
C        11.22009968478450    5.74751113060914    4.17560020231220
H        11.91521006606460    6.55613421178680    3.95514974752014
H        10.30953227709024    5.90120726739628    3.60322719897376
H        11.67077636138768    4.81049294648972    3.85665111597667
C         8.20914013660856    2.18047162455682    5.80092165672784
H         8.10050566076461    2.30576494150854    6.87638503739917
C         5.51244701904011    2.51421440613877    6.36146457678794
C         5.51183839731179    1.52240555820755    7.51798009705134
H         4.87336252972016    1.88644883985526    8.32151902296041
H         6.51144526642087    1.37376672647902    7.92137430057005
H         5.13274750896682    0.55731024859804    7.18781812064019
C         4.12506297331071    2.58640793371850    5.73514376908469
H         3.38536944493063    2.81122753838773    6.50209084302030
H         3.85806608454376    1.63710508559171    5.27601959034749
H         4.08105978403541    3.36452403109479    4.97750167897708
C         5.96157545807081    3.90720619984610    6.80144369737684
H         5.16808125489569    4.37381162193776    7.38372337441156
H         6.16241856259126    4.54716100268221    5.93071041923604
H         6.85213308951691    3.87720265132444    7.42632044241411
C         9.75812336477808    1.47774232373680    3.77561324574249
H         9.07573468068277    0.71736632580075    3.40134867780938
H        10.76433504238685    1.24786287145018    3.42787064782860
C         8.78163132177140    2.64861687356046    1.30640237261544
C         9.97321649817679    1.96474373530090    0.64695238451776
H         9.77393356994844    1.82137736509450   -0.41392196665586
H        10.16192092523368    0.99102757514387    1.09164360569441
H        10.86883635517426    2.57414960824360    0.74834344853325
C         8.49455723782589    3.98428542677225    0.63237608910491
H         8.19523459144565    3.82630856987712   -0.40203321060876
H         9.38393705526606    4.61079068319632    0.64254912058942
H         7.69337987486451    4.50427764934556    1.15108758725388
C         7.55219044581350    1.76079849826196    1.28327327426296
H         7.30024048462942    1.50536977715807    0.25518379372818
H         6.71138668029604    2.28347721761657    1.72449233703214
H         7.71680380803789    0.83492003155249    1.82913920029385
C         4.74952291044293    5.49301932808082    1.96194411350136
H         5.24865096121908    6.44701869777722    2.05148193513796
C         3.61101148318581    5.36635816203112    1.19376903007794
H         3.21486718340822    6.22915890704917    0.67771932235245
C         2.97612726229471    4.13876329828512    1.07978813239709
H         2.08584426472207    4.04162223441131    0.47635782212974
C         3.49172673331936    3.03910349009255    1.74472440293810
H         3.00326108183212    2.07893699107532    1.66031538694118
C         4.63022563640238    3.15932441109342    2.51895197546485
H         5.01918152690809    2.29580679707707    3.03609232789421
C         5.27998327886776    4.38860645165792    2.64125215029131
C         6.47059928699967    4.58854626453443    3.41575494162727
C         7.29912111093028    5.49854290112488    3.74149928745177
C         7.64761066636028    6.87887737525166    3.69762692117035
C         8.44786858792865    7.39658708471990    2.67534862006939
H         8.82580006506087    6.73089276837342    1.91385149806675
C         8.73759022701592    8.74581732917550    2.63130399856248
H         9.35841319394685    9.13261292156660    1.83591869817891
C         8.23233476993201    9.60490321080115    3.59421180882098
H         8.45988432507976   10.65962592463120    3.55434473585279
C         7.42769164005516    9.10422173019228    4.60567385623459
H         7.02533603336831    9.76995911064954    5.35561171121122
C         7.14058784134175    7.75504013156108    4.66437357921700
H         6.51740188786627    7.36039817471710    5.45492428031245

