43
CSD_code = VIYKUK | q = 0 | S = 0 | Stoichiometry = C20H19HgOPS | MND = 3
Hg        5.22607986178663    4.83580018860432   10.28501918015471
S         4.17059554684589    6.45040693961987    8.53773453024702
P         1.82416442722191    4.87762857644155   10.12638588378196
O         2.78991939955638    4.28465442244042   11.08483221310944
C         1.89968320076756    6.68956510996483   10.09233088008681
C         2.96674275478571    7.33322681180146    9.45935698400465
C         3.03903239323662    8.72429108364404    9.49523864001426
H         3.85669265796967    9.21232049388342    8.98635430233242
C         2.08638663381275    9.45526540249070   10.17497591007485
H         2.15501159464289   10.53303351483327   10.19738313808722
C         1.04920123023158    8.81252882383133   10.83695003917051
H         0.31250437778411    9.38511446550179   11.38037089917077
C         0.96087817262164    7.43390318993230   10.79623301665245
H         0.15636802491529    6.92069580645597   11.30591037013436
C         0.12706747931703    4.43640341000952   10.59434778676430
C        -0.04613872679951    3.66690589985498   11.73564267059398
H         0.82543410927784    3.38552769290810   12.30892759033109
C        -1.31696061646222    3.27982361962558   12.12272368876280
H        -1.45283585513801    2.68284182155878   13.01255048736614
C        -2.41315184963615    3.65991373372308   11.36648878065589
H        -3.40622387762676    3.35913456513836   11.66648634588504
C        -2.24039143448566    4.42595727158234   10.22334733049616
H        -3.09799249317864    4.72008537915756    9.63606190520123
C        -0.97253566680476    4.81392763727048    9.83297139641715
H        -0.83288822403458    5.41262400881009    8.94472012366824
C         1.99133391326693    4.22704558781729    8.44105649354471
C         1.46082731902606    4.87800400478982    7.33508572987114
H         0.98618884400414    5.84205039169736    7.45393419911439
C         1.59119211074199    4.30940352503054    6.08255535060885
H         1.19372981674652    4.81889759571559    5.21698904469378
C         2.24000801212422    3.09335439084948    5.93356428299350
H         2.34402380353382    2.65659287864530    4.95118911700599
C         2.76405148866484    2.44202628499216    7.03820142208952
H         3.27226664993787    1.49602446577879    6.91940601124470
C         2.63665465850684    3.00654679378720    8.29433310554106
H         3.03766647172840    2.51442231400405    9.17217301067475
C         6.23021585988083    3.14258192342729   11.44467001899192
H         7.24902904866005    3.01874582545913   11.07106449128053
H         6.27327578677056    3.46113439097357   12.48880391081225
C         5.45431874720241    1.83732619133206   11.32703850530270
H         5.93410000908586    1.07578090690511   11.94550301680132
H         5.43909687455377    1.47230632532984   10.30041985604662
H         4.42977746490694    1.95597633440308   11.67626834018324

