55
CSD_code = VIYLAR | q = 0 | S = 0 | Stoichiometry = C23H27HgOPSSi | MND = 3
Hg        3.64595587587387    8.29969957941786    9.86927253362006
S         1.08856310314904    8.68693683336998    9.96798527771135
P         2.00365911620082   10.93293020633285    8.12192086617419
Si       -0.30529941477138    5.92036879768668    8.93610363485777
O         3.39029634071871   10.51285432587799    8.43520736015120
C         0.69137421820838    8.52463720704766    8.26370282607231
C         0.99931092061498    9.59332584075820    7.42176427837671
C         0.65648353076080    9.54556050907740    6.07872048942366
H         0.91396563431589   10.36960736517549    5.42761770232954
C        -0.01852310759364    8.44136743110951    5.59102287722097
H        -0.30096614599883    8.39980598334873    4.54897181231094
C        -0.32078572062122    7.38537800044852    6.43645642884306
H        -0.83725786653099    6.52492526459753    6.03866462489887
C         0.02608440127676    7.39574775776305    7.78145886678152
C        -1.54628315093296    6.38082691220963   10.30689540795429
H        -1.70226125863477    5.54664708236072   10.98457466948863
H        -2.51175494919335    6.65211616832804    9.88923979976797
H        -1.18758225467792    7.22316008607662   10.88928175735333
C        -1.03821718892611    4.50241707684274    7.89206725873641
H        -0.37271177475434    4.19722207218993    7.09084531746359
H        -1.98942459670780    4.78001802243574    7.45019699103260
H        -1.21471098359215    3.63402820832405    8.51780716927357
C         1.36158582170065    5.31093633759998    9.65275750406243
H         2.19130333992498    5.58115532057253    8.99509397571271
H         1.37952207938467    4.23147490269950    9.77050569645932
H         1.54703148431158    5.75259632613783   10.62938838649264
C         1.12467540338332   11.71639837698060    9.49924663438171
C         1.90060023090851   12.31417829576790   10.48161443607944
H         2.97791495075974   12.24108896503909   10.41322112665678
C         1.29093688261931   12.97173548636442   11.53411300594679
H         1.89156376879511   13.43353254260128   12.30440979428877
C        -0.09132162326493   13.03517697992192   11.59932447705524
H        -0.56917323332356   13.54663390135144   12.42215443931468
C        -0.86484810199878   12.43557895815000   10.61749132204719
H        -1.94273660447946   12.47798089904953   10.67835524357808
C        -0.26075256490848   11.77749432036844    9.56325300606852
H        -0.85701238615247   11.28288124461357    8.80852473064186
C         2.02886746704247   12.23674082948011    6.85500608485000
C         0.88078075064570   12.93154094653881    6.49406330579039
H        -0.06196389710519   12.69195779387598    6.96470445720194
C         0.95280159578446   13.92394242434171    5.53464062732155
H         0.06131246206505   14.46424693508884    5.25072861684428
C         2.16712770382052   14.22817891667918    4.93797842636645
H         2.21847826887125   15.00554640208282    4.18967544895785
C         3.31272260207748   13.53993006848529    5.30093359865444
H         4.25849204334962   13.77904477036630    4.83683600619046
C         3.24327331983619   12.54486249248984    6.25997011821751
H         4.12309948767433   11.99429933264590    6.56049150813544
C         5.87967422264686    8.67335392130583   10.19306789456557
H         5.91553594056505    9.33276119127926   11.06578629934245
H         6.37345671655295    7.73191699291360   10.43910828927460
C         6.55134330536011    9.33863279292646    9.00055506724944
H         7.57889153502995    9.59921684368468    9.26451353540405
H         6.03309998965374   10.25272137327467    8.71672901667164
H         6.58320231029870    8.67378238456010    8.13887997034895

