29
CSD_code = VIYMUL | q = 0 | S = 0 | Stoichiometry = C12H14CdN2 | MND = 4
Cd        3.55088385781627    4.42340904452314    8.58156116595722
N         1.37648260739839    5.61720826682607    9.45472296118924
C         1.44760204028167    6.39065476867946   10.52601378273182
C         0.33837564310302    6.81095370136528   11.24174222407513
C        -0.91368801906182    6.38162766772511   10.81813938352354
C        -0.99893732289592    5.57635782183862    9.69993104997846
C         0.17284089058572    5.21487438231375    9.02589232213313
C         0.14466707419556    4.36728808908744    7.82617024063127
N         1.25701397582197    3.67454598154588    7.54901625052998
C         1.27257089079882    2.88898693212068    6.48430828529237
C         0.19501632711892    2.74177968906696    5.62615946101956
C        -0.95633044260118    3.47344172192787    5.89167277993108
C        -0.98360469280375    4.29381590146510    7.00187656717978
C         3.88327973879060    2.98290633473008   10.25561515063445
C         4.23891792899112    5.74373813423705    6.91204314881969
H         2.44833583459701    6.69099989882946   10.82051045473527
H         0.44735387857491    7.44445634402807   12.10748311367734
H        -1.80518630744304    6.66870427044314   11.35611402996271
H        -1.95829315236839    5.21170459705770    9.36812818376075
H         2.19775785760726    2.34586979226737    6.31754223089549
H         0.25474153483342    2.08601103443879    4.77233508988778
H        -1.81437101084860    3.40567187503199    5.23901199673702
H        -1.85801182970953    4.88895027623382    7.21299349479058
H         4.82208923130807    2.43291413198155   10.18196833625840
H         3.06960159894336    2.25727825779031   10.26137845399709
H         3.87435636263020    3.49685653217925   11.21802696360696
H         5.32278421401693    5.81348456258230    6.81764463280596
H         3.85001524454050    6.75157571360270    7.06180948421991
H         3.84433604577703    5.37523427607839    5.96428876103770

