58
CSD_code = VIYTAY | q = 1 | S = 0 | Stoichiometry = C25H26FeNO5(1+) | MND = 7
Fe        3.20972089658190    2.21454309390991    2.50556350053721
C         4.72207598890237    1.37577590770367    2.90631222426874
C         3.27204653586526    1.48664956962450    0.87131861630334
C         2.28139462801955    1.09904040061844    3.55224672189330
C         1.58334057308544    3.23893223142636    2.06599930506865
C         3.28006631340666    4.37454779271958    2.87643905956300
C         4.27824498477358    4.18131585920811    1.88987724286178
C         3.30694435618432    4.00381566158314    4.24240565423033
C         4.53871777305374    4.01204602924915    5.07540099287175
C         5.01319886504237    2.86470702932642    5.70359556358512
C         6.13272304798707    2.92833145490715    6.51384482477615
C         6.77723201631871    4.13779761324591    6.71586659533745
C         6.29748801178424    5.28681228211436    6.10894514500633
C         5.18184158774923    5.22993452689172    5.29336778111321
C         1.23347348590446    5.71450226524770    2.37037611583580
C        -0.13077996297471    5.81157040016570    2.12146784383158
C        -0.74132247868968    7.05325379797022    2.15097874212785
C        -0.00729266457855    8.19511732297341    2.42384511275679
C         1.35232818916329    8.09584371940456    2.67197224941918
C         1.97263822990986    6.86181750101725    2.64635541997792
C         4.02716648233146    4.71938361186587    0.50134291030250
C         5.74703282588227    4.19418785912988    2.23208547560681
C         1.99360883761137    3.83997607440267    6.25342851230485
C         0.59092776688739    4.23209338455021    6.68151994377610
C        -0.04734103115503    1.69809504097491    1.27055773670849
C        -1.13045426079399    1.26559242560702    2.24607050626742
N         1.91856856292098    4.48435626245708    2.36780977989241
O         5.65635342708443    0.75610774719170    3.09933438473716
O         3.32681427373921    0.98664397449187   -0.14891424095233
O         1.71346869643578    0.33974751087161    4.18432037784944
O         2.11734857110811    4.16075046931314    4.87058136748536
O         0.38943162096992    3.02143363609564    1.58045148782621
H         4.50798153510697    1.92190790712900    5.54540061195842
H         6.49907099770212    2.03191581571224    6.98874988960553
H         7.64916663236596    4.18526260391259    7.34867318660477
H         6.79091017592829    6.23227944143512    6.27133547398830
H         4.80013224184944    6.12663478916780    4.82852606221274
H        -0.71383412557615    4.93189747814517    1.91045877211016
H        -1.80052076806755    7.12549985812971    1.95913425383621
H        -0.49144585819530    9.15854721723944    2.44342717777107
H         1.93106767264295    8.98122412902379    2.88492109124112
H         3.03256463947012    6.78148111432331    2.83884835254630
H         4.32134216718995    5.77033337611821    0.46622948574665
H         4.63825281559492    4.18855557459142   -0.22358689659766
H         2.98784591611588    4.65203395124878    0.19267710830673
H         6.08977968473515    5.22624603475532    2.32276450441626
H         5.97675108150626    3.68185936185152    3.16052416673225
H         6.31556252263542    3.73406032007856    1.42790160028897
H         2.15496477051825    2.76325841110088    6.39020472019359
H         2.74573269991448    4.38399469215935    6.83557899189089
H         0.45297578458859    4.00030458372172    7.73288594087829
H         0.43718274695679    5.29696807642147    6.52978871700257
H        -0.14760884785208    3.68798328582678    6.09914270493196
H        -0.44373003884027    1.74168408916553    0.25250720341785
H         0.80842789697595    1.01171557879532    1.30154343689085
H        -1.48383696573080    0.27541264121676    1.97600839556222
H        -0.74295869967305    1.23393301792386    3.26128255594981
H        -1.96878282837257    1.95618419454867    2.21220553934538

