34
CSD_code = VIYYOR | q = 0 | S = 0 | Stoichiometry = C13H17MoNO2 | MND = 10
Mo        0.21464216934509    2.39461110811568    2.14420494776565
C        -2.07836586656333    2.50611892070032    2.36588438965794
C        -1.81744415401764    1.21768139712182    1.86058637743154
C        -1.06235851840906    0.51325907357490    2.81598745775659
C        -0.85038027584106    1.35548085033482    3.92337341098285
C        -1.47494169865180    2.60524256476857    3.65199806478692
C         0.54451647453578    1.97843099170505   -0.05003287686578
C         1.79368168056993    1.76338760436215    0.59470693604736
C         2.89817667057886    0.44475552990988    2.28509694477574
C         2.50420970334511   -0.03128554140514    3.68040856758422
C         3.55746764386685   -0.70047706229213    1.50572355246302
C         3.03381965901333    2.50484268020709    0.15187734655664
C         0.49287169331232    4.20555976933265    1.55412587081512
C         1.68454315257337    3.25987690440597    3.04132397985407
N         1.72142515781019    0.86347923731489    1.56362447042185
O         0.72521191631131    5.28245401049435    1.20716023801677
O         2.52468419170419    3.85062152355506    3.57228750058626
H        -2.75642696521229    3.23065338595905    1.93362844223431
H        -2.25230071996619    0.79547312800075    0.96433539724916
H        -0.80023696790602   -0.53494316261860    2.75812426236843
H        -0.44433324081532    1.05524894339959    4.88022450245547
H        -1.67756426747269    3.38002682572862    4.38404670037757
H         0.53168836913625    2.70269840512399   -0.85719060388529
H        -0.02471816684863    1.08095713885059   -0.27809325839525
H         3.62679678709483    1.26657669135439    2.39616352273878
H         3.37478865745218   -0.42564567113383    4.19840132500080
H         1.75419017625836   -0.81525915938454    3.61027809944383
H         2.10379005813596    0.79859300431015    4.25828320070780
H         2.86325885881462   -1.53339007095968    1.42082403930301
H         4.45329340790772   -1.03768983010769    2.02033656552550
H         3.83022836986069   -0.37686135751084    0.50429935310708
H         3.64901830639027    2.83174034875471    0.99028697406663
H         2.74977823524249    3.38066224009216   -0.42942175577814
H         3.63738950244373    1.85281957793534   -0.48116394515653

