35
CSD_code = VIYYUX | q = 1 | S = 0 | Stoichiometry = C13H18MoNO2(1+) | MND = 10
Mo        5.85583444525836   12.47036919087033    2.56197844567256
C         5.49682519233563   11.07471053929191    4.39852552339484
C         6.88688754042947   11.18758166139315    4.15510475132327
C         7.25766401458966   12.54593291831632    4.34975322301519
C         6.07907093549741   13.26078089231957    4.71057658808229
C         5.00497572579714   12.34757171521989    4.75142607426442
C         3.69541474161509   12.96652268847942    2.02073405725370
C         4.34293885218395   12.30780881797711    0.95606530985782
C         4.37958426824808   12.81654589765360   -0.45513783151504
C         5.16860161551069   10.00229719165025    0.33888528342938
C         6.03629270486437    8.98221516956411    1.06699867513801
C         3.97477970394704    9.32454885037085   -0.33201328134363
C         6.21265283268879   14.24279439389890    1.83035169648460
C         7.20328912098868   12.23466849132975    1.17806542609269
N         4.68724878579840   10.99621640045259    1.30935950552191
O         6.45655108502461   15.25910772987952    1.38226912640366
O         8.04051257918507   12.16381957232030    0.40782263536404
H         4.95079954450285   10.14209049176883    4.48949149694374
H         7.57747565620125   10.36158866425860    4.04885227792856
H         8.27261332544886   12.91473002082627    4.45167852282165
H         6.05186381197260   14.27979795231055    5.07413089326962
H         4.01760711511315   12.56129351335069    5.13646334763921
H         3.01604016270146   12.39394335595718    2.65016999227560
H         3.34682796052375   13.97534386057722    1.83694128683365
H         4.30373790931387   13.90303408989741   -0.45313322529178
H         3.51945274606120   12.42606938751748   -1.00414866669565
H         5.28537816091169   12.53957523872876   -0.99319836555845
H         5.77657439515184   10.51739568081464   -0.41115776736250
H         6.39264263092333    8.23529202503380    0.36421042028177
H         5.46700325338482    8.46991134839753    1.84079090323643
H         6.90409292011747    9.46280620083427    1.51549114349653
H         3.31795199449391   10.05129251913024   -0.80285599601629
H         3.39997658509004    8.75100131874324    0.39300675902655
H         4.32345695005599    8.64010572669597   -1.09913992540301
H         3.97878073406825   10.54603648416937    1.89854169413480

