29
CSD_code = VIYZAE | q = 0 | S = 0 | Stoichiometry = C11H12MoN2O3 | MND = 9
Mo        1.65961804309247    3.63581489847691    1.23778460448604
N         1.18921211385154    1.00194959102736    0.88461444903214
N         2.23085008377189    1.52633568448497    1.56597387830357
C         1.95311991657445    3.68901628574437    3.14810062175941
C        -0.03939665657048    3.67275591811073    2.13483916663343
C         0.47775780491239    2.07318883064040    0.39424539846495
C         3.14998434844442    0.82131894082164    2.10121033121821
C         3.13594919282281   -0.68129809904186    2.07582561191288
C         4.27578313101136    1.50389903856887    2.79749100540833
C         3.32973143821112    5.16844390562315    0.56571494608397
C         2.04655044395232    5.76909316920766    0.44403542239624
C         1.32215985836508    5.03439936461310   -0.53153264088791
C         2.14380707353137    3.97529666497060   -0.97915648200988
C         3.38228401551886    4.06501749240385   -0.29770268242483
O         2.05148545721911    3.73787786620429    4.29547701419254
O        -1.05656924671177    3.70117880155715    2.66994944366958
O        -0.44889485748589    1.98641321964749   -0.36105698789580
H         1.06704358503802    0.00338319555654    0.70460679275103
H         2.20106023782410   -1.05909754362260    2.49145266162447
H         3.95915767419795   -1.07531929607932    2.66300218782002
H         3.23026412660354   -1.05490591124254    1.05538599525548
H         4.26304532281832    2.57123118786092    2.58502643768342
H         5.22700905404170    1.07758313993761    2.48328939641858
H         4.18490586494247    1.36347729298043    3.87452588053511
H         4.15961014009980    5.57238979583159    1.13262796795599
H         1.76785224224903    6.73836900694876    0.84211523459447
H         0.37495336974863    5.32294228264628   -0.96667360703806
H         1.93906993159497    3.33738841287373   -1.83029316915572
H         4.26429629033126    3.47335686324972   -0.51607887878827

