44
CSD_code = VIZDIU | q = 0 | S = 0 | Stoichiometry = C18H22ClIrN2 | MND = 6
Ir       13.62039285135316    9.99086390359952    7.41315672801324
Cl       14.07648604775090    9.37012088592440    5.18941058477438
N        14.65451744441282    7.17026064467193    7.86295586419210
C        13.60504168946724   10.93171853631632    9.31944328212469
H        14.48627020216332   10.68569433054340    9.90865583616642
C        16.82161010118003    9.84874071938393    8.56291184667078
N        16.15977219479500    8.62413709041452    8.36072938508481
C        16.67000220795015   10.87650099906449    7.63784692547630
H        16.08423605722583   10.70755528115546    6.74630239163688
C        14.87675173308657    8.49928010954240    7.92647534969926
C        12.59623350193628    9.94812161677015    9.25731027654047
H        12.76790717213084    9.03542866006945    9.82963408366353
C        12.97906039601436   11.94473916677934    6.78116396583601
H        13.42814536367911   12.12717361776957    5.80688829126771
C        18.06883480110554   12.28454542786782    8.99023299008382
H        18.55063123939514   13.23545029182936    9.16141022074963
C        17.61259936399057   10.03442505991757    9.69054705583722
H        17.72352633525160    9.23610009930572   10.40979904343515
C        15.76741962212016    6.47510233970632    8.25305359649778
H        15.80046530881335    5.40500807679569    8.26699468588916
C        13.31229774601447   12.41749599077163    9.26385796363750
H        14.05667092333101   12.94814196963219    9.86089812583154
H        12.33904566065832   12.60882806489102    9.71898201401697
C        17.29071460013132   12.09186066354727    7.86053412630074
H        17.17425726717952   12.88953207160442    7.14257670105945
C        18.23403121729322   11.25276186589043    9.89902010444363
H        18.84267310476578   11.39782146042892   10.77906189068291
C        11.86205931952062   11.13605434497653    6.83238967581788
H        11.50906088761492   10.70300771613414    5.90015404430423
C        16.71397579439688    7.38554782126065    8.57297068833756
H        17.72654593906602    7.25660409479674    8.89456091715093
C        13.35098006760394   12.96999758652240    7.82626675874510
H        12.68586630014468   13.83621333661202    7.73843982496192
H        14.36359190613439   13.31723091297114    7.61229304451620
C        11.12272226516479   10.25020403776996    9.09037782649565
H        10.72277482509669   10.65186564515244   10.02821840282600
H        10.60897856373124    9.30513526856515    8.90117250868503
C        13.42346403986564    6.57056915608640    7.42875540078252
H        12.77321790834573    6.35849781734191    8.28067785198971
H        13.63225941609828    5.64369985731692    6.89639240507907
H        12.91986642794534    7.26761183355389    6.75842182833967
C        10.82680903907244   11.22006504157373    7.93140161959911
H         9.84523739875760   10.98389514655668    7.51586870773797
H        10.78199574824695   12.24629143861724    8.29908516501951

