57
CSD_code = VIZMIC | q = 0 | S = 0 | Stoichiometry = C22H30NNiO2P | MND = 4
C         1.73394653744273    0.88764013959612   -1.26742889993436
H         1.16770966106460    1.31666946274575   -2.08974186986788
H         1.24366010745285   -0.01996293127454   -0.92353049074556
H         2.73122494733661    0.62793870592666   -1.61690119801387
C         1.83006278021834    1.89721099904806   -0.13578777060728
C         2.44894691487614    1.47487362005554    1.03485348274312
H         2.85497414785758    0.47634137112425    1.08229430549891
C         2.59488809632158    2.32008651107395    2.15122753940306
C         3.55717811813511    2.57184401518968    4.39186917427296
C         4.23039387416709    3.79712521720970    4.32415837959019
C         4.41906805953069    4.51197816146797    5.50043387582756
H         4.92885360421127    5.46392598756260    5.45769936934710
C         3.98578888423081    4.01901775637804    6.71642799035755
H         4.14676900097598    4.58757284745242    7.62032873240132
C         3.35631609108614    2.78840991718175    6.77500555992571
H         3.02665183318046    2.39532517918506    7.72606655352442
C         3.12936190614499    2.05628001867016    5.62090857395593
C         4.76735785240208    4.32741309954269    3.03203409290766
H         5.18011701686848    3.52098201425902    2.42795864254529
H         5.54128413321885    5.06914006667880    3.21494402589225
H         3.97635864322647    4.79945585878115    2.44537227339903
C         2.42703202222805    0.73096902786157    5.67772295625433
H         1.60830940118977    0.69724245802979    4.95902911697191
H         2.02395066238437    0.55622053118469    6.67193897918497
H         3.11599570236513   -0.08283411535113    5.44446326678754
C         1.22580181190184    5.84651242339570   -0.58102273842219
H         1.05755171901449    5.28455074404969   -1.50215077343968
H         0.53994652518394    6.68949082612635   -0.48879923069275
C         2.62878884995656    6.18893744186729   -0.33333559578991
C         2.98961628193442    7.33551373716262    0.39777445879395
H         2.21175924973754    8.01307632850472    0.72503241100921
C         4.31039784938287    7.61424718432677    0.68270556962410
H         4.56400259557970    8.50245740965292    1.24509991275709
C         5.31588703052787    6.76263722093899    0.24951734594229
H         6.34859328099533    6.98132774319459    0.47829381367801
C         4.98735913225867    5.63544817557601   -0.48778067192017
H         5.76983257507800    4.97641298101474   -0.83682153046583
C         3.66851801200139    5.35131038238244   -0.78337875053131
H         3.42072965633985    4.48603277469492   -1.38335598705934
C        -0.69383190424002    7.22848330488493    2.17815356026729
H        -1.49776242889183    6.95995995192281    1.49633135959756
H        -0.13067176992238    8.05022321967544    1.74313164519192
H        -1.11728220838847    7.54912911350669    3.12834829732814
C         1.53559844432328    6.41438327922707    3.72649478464973
H         2.23029774113865    7.12757034685960    3.28836647428112
H         2.10389395726094    5.58054440426086    4.13289536648062
H         0.96874816486831    6.89497454488626    4.52268691468501
C        -0.68352038167116    4.71019181219347    3.45311204779798
H        -1.08044050046817    5.26636037753186    4.30189226332781
H        -0.09858917886120    3.86538282625923    3.80955762454919
H        -1.50355991563605    4.33568909361520    2.84350457271578
N         3.32001209968226    1.83325293445285    3.21883458191600
H         3.44712860199810    0.83457891223923    3.27049995829837
Ni        1.36948226553734    4.59211312908858    0.86886450451110
O         1.36008130733619    3.04511496384461   -0.36812976010224
O         2.11143790338174    3.47434400182789    2.26867451067779
P         0.40569323465500    5.77528249116622    2.43065639859651

