107
CSD_code = VIZMEY | q = 0 | S = 0 | Stoichiometry = C54H43O3P3RuS3 | MND = 6
Ru        1.83574866954037    3.18482145225222    5.53731088404185
S        -0.54157689300637    3.08166501212203    4.93290930957403
S         1.08935377166316    2.53153435200862    7.66919274128722
S         3.99459561607000    3.13959460263419    6.13595807318461
P         2.23725704840470    3.77392952072399    3.35324821006960
P         1.64160740947329    5.32698920050810    6.36082709560231
P         2.05848975455614    0.92380056988114    5.17724574931289
O         2.30097078642515    2.30036974782746    8.68975639218805
H         3.14733627931307    2.79436562562928    8.36022888678706
O         4.21140233215881    3.44984576850984    7.57434728201082
O         4.88994754116584    3.87940939752001    5.26459521811603
C        -0.55304736950678    3.68112507349060    3.29313843851343
C         0.61026476694710    4.01172535352845    2.58259152648095
C         0.50305039187401    4.52568935020918    1.28999570683932
H         1.40413547075893    4.81484851459584    0.76481413918292
C        -0.72904174335610    4.68804641832880    0.69117829425934
H        -0.79716028981327    5.08832234718636   -0.30934490586636
C        -1.88056400478078    4.33573723655963    1.38661399728216
H        -2.84861364779850    4.45739230260273    0.92263619020635
C        -1.79468737654349    3.84373025719462    2.66881350418742
H        -2.68229977724998    3.57936688905450    3.22323869933426
C         3.10387864871550    2.57633626971310    2.27361592030235
C         2.62097999349529    2.15439294019412    1.04012943198771
H         1.66122460984863    2.49760322997286    0.68461639921253
C         3.36161752309638    1.27634611780855    0.26907436732291
H         2.97847569388497    0.95655379126536   -0.68913696442765
C         4.58389230072325    0.80604236241555    0.71741346239007
H         5.15890531064535    0.12467195992974    0.10756153815028
C         5.06032488831740    1.20451422962994    1.95489308898406
H         6.00769231892250    0.83307591024155    2.31905088419514
C         4.32365109068537    2.08000510868951    2.73093804600760
H         4.69928922146353    2.39745057967075    3.69372782985440
C         3.09907665313863    5.31214778219242    2.87100630034603
C         4.47601529111824    5.33929122420397    2.66705803671622
H         5.05545219168979    4.43570095214226    2.76254557312399
C         5.10982021871867    6.53098490625623    2.36444584818201
H         6.17942027539317    6.54193674102745    2.21334235866871
C         4.38249360868814    7.70505595568568    2.25649041310618
H         4.88180138167091    8.63358577945874    2.02062420793651
C         3.01131490881883    7.68241537643195    2.44814795187852
H         2.43309135636475    8.59066473479597    2.35970640948043
C         2.37213542326118    6.49588526839935    2.75746895666010
H         1.30105964546521    6.48525043237929    2.90017026389121
C         0.32849254884254    3.98989117381429    8.38408170739335
C         0.54846221841076    5.23716546999915    7.82079204177069
C        -0.03725500079915    6.35655520167425    8.40643008354252
H         0.13187053497668    7.33430392919113    7.97779941509279
C        -0.82496276356040    6.20991078226815    9.53357657410725
H        -1.27756647055807    7.08029237821372    9.98534227106123
C        -1.03587583748472    4.95541682886077   10.08818137850780
H        -1.65355128073198    4.85006316166995   10.96732104770052
C        -0.45899919714343    3.83728752436735    9.51215378917854
H        -0.60750554706832    2.85116963203133    9.92462675960751
C         3.14021853281008    6.07163766075579    7.06370287228531
C         3.36349065124020    6.18321407754222    8.43104838194952
H         2.61153496583094    5.85944213359240    9.13775051201237
C         4.56463754539626    6.69167630748259    8.89051099496459
H         4.73937080014750    6.76829866706353    9.95413370941727
C         5.54578139411732    7.08344514158334    7.99577235355743
H         6.48699866466676    7.46754213656553    8.36220782367778
C         5.32748016061547    6.96853456719724    6.63251071551100
H         6.09498277778592    7.25786975924178    5.92975813782359
C         4.13169696670509    6.45994596214432    6.16546577827685
H         3.96614022886953    6.34126680249624    5.10414964952898
C         0.84343865572658    6.74575324593749    5.53346730636515
C         1.42373440837529    8.00265873759272    5.40853119696356
H         2.41501075093057    8.18732295512959    5.79597724469550
C         0.72781567000364    9.02382218119853    4.78439623147888
H         1.18238924065111   10.00016782864534    4.69474349188781
C        -0.54102770364491    8.80071597500128    4.27701486454900
H        -1.07394288511362    9.59979853226988    3.78260281912302
C        -1.12873220314559    7.55277282036359    4.41255218355972
H        -2.12106228730899    7.37324474057102    4.02595314482997
C        -0.44477741744642    6.53340933044467    5.04595699519758
H        -0.90403239588741    5.56177633611365    5.16688782514230
C         4.60574059930890    1.40495917906445    6.07300056917259
C         3.71680630215793    0.40541333477933    5.71579444035248
C         4.11689520613216   -0.92749519948887    5.82256923104986
H         3.41154794361817   -1.72165719462488    5.61782698930724
C         5.40623732249151   -1.22213140053695    6.22692142956117
H         5.71685862926125   -2.25390752015693    6.30716686197818
C         6.29986681018436   -0.20649397704408    6.54068797097075
H         7.30469885644676   -0.45003519087579    6.85289284195354
C         5.89203160773717    1.11516007012476    6.48117633037143
H         6.54557129673121    1.92967061808493    6.75481243464619
C         1.80345633232810    0.12468141104384    3.55534486490598
C         0.63422003043127    0.46765005764472    2.87876419074237
H        -0.01240017834947    1.23157951628137    3.28830906470412
C         0.30805788728468   -0.14402722255230    1.68382508537581
H        -0.60382619715850    0.13001621329992    1.17348715258725
C         1.15204357644226   -1.09992912465304    1.14415839993137
H         0.89776956328961   -1.58695979623108    0.21428754678390
C         2.33388042232859   -1.41570327331422    1.79157756021633
H         3.00799773745530   -2.14231205617710    1.36158679784255
C         2.66499158710127   -0.80671622785387    2.98926488192394
H         3.60330039524366   -1.04751720521224    3.46519949820770
C         1.00872751492293   -0.14810856835357    6.22647497217893
C        -0.27209764015774   -0.51163273778657    5.82300450307306
H        -0.63717455813030   -0.22047941014484    4.85024401178815
C        -1.08497442576190   -1.24667865930246    6.66688020601156
H        -2.07696448841119   -1.52514345144971    6.34252673448061
C        -0.63501463299169   -1.61864811652142    7.92216400547919
H        -1.27283271445252   -2.19111201832374    8.57961536468568
C         0.63388923794664   -1.24760495655322    8.33533680705490
H         0.98853602455114   -1.52449589780633    9.31735718671816
C         1.45111838940972   -0.51209666226240    7.49805847744211
H         2.43280454592146   -0.21403715899315    7.83969853127445

