90
CSD_code = VIZMEW | q = 0 | S = 0 | Stoichiometry = C31H42F12N2O2W | MND = 5
W         5.22734294750317    3.99085610228400    2.14290102197804
F         7.35188812011257    7.89189740847200    1.78822320362723
F         8.83396497070316    6.81754022332152    0.67991663357577
F         9.32116811322861    7.61083391083236    2.61918428822969
F         7.10886598682624    7.19793504681699    4.27466592568334
F         6.46696991281678    5.15814640258182    4.36223494018668
F         8.49370989060823    5.69143478260756    4.90507498003312
F         8.08902476397291   -0.29263430885842    4.15151996531727
F         8.48698186590571    1.74033815241328    4.74148507454250
F         6.64447567617322    0.79973000962495    5.29794683359553
F         7.64844832054944    2.19338864629238    0.91283529700447
F         9.16275724839902    1.39911426960483    2.20890416004169
F         7.80965846916005    0.06749081036869    1.21613783926876
O         6.73920720820366    5.29750835507770    1.91820564112428
O         6.61534348343813    2.75984682195512    3.13959781123234
N         3.77513543305532    3.20461312362703    2.82540788214743
N         3.99640424130248    5.83752785972696    1.61389401571974
C         5.02746067600691    3.33449812968141    0.26124890626622
C         5.96463297360646    3.78027452962968   -0.71058305614645
C         5.99353425125338    3.39338326700516   -2.00233698814906
C         6.97963338002418    3.88059505165923   -3.00624760161757
C         2.73853151696229    2.71769249438087    3.53927964099176
C         2.64950684503629    2.95531037882288    4.93650968059614
C         1.58071337700666    2.45336191601174    5.65493771557932
C         0.58827191830425    1.71192631180273    5.03876587661228
C         0.66509110193933    1.47001748458474    3.67864941493785
C         1.71261876384742    1.95818104248033    2.92011329394028
C         3.72690636058384    3.76395278969092    5.61473530709822
C         3.15445371326001    5.07646446948058    6.16094453990772
C         4.40730915677584    2.97818200927503    6.73591670418389
C         2.56338720302667    5.52462121235133    1.41628551619973
C         4.12826293310527    6.73130296175855    2.78372656352768
C         4.46921487160004    6.56345077019393    0.41557107484091
C         1.77678520769079    6.77040257233670    0.97253587310349
C         3.12622884103080    7.89691006319683    2.71235507437976
C         3.84950995415547    7.96910834086717    0.34310716617627
C         2.63492162232744    7.99840635417159    1.26953855091992
C         7.87650403324849    5.67285832236549    2.54035797255469
C         9.02786895941979    4.65934652803528    2.47081572200698
C         8.35816879324340    7.00827158598217    1.91313062708318
C         7.52518397842240    5.94160485857140    4.03410555428750
C         6.86101109307944    1.43147126005294    3.00325089370377
C         5.61295215995754    0.58429655038251    2.71010924415386
C         7.53020199800582    0.91839900506116    4.30485591887360
C         7.88477572204749    1.24822573444886    1.83999849816623
C         1.78334761654999    1.68816155764858    1.43715773356523
C         1.94516986375931    0.19101560577171    1.16428713796880
C         0.55047018773700    2.23258901078840    0.71131122481835
H         4.31803641790057    2.62436663155872   -0.18539196552672
H         6.72434300840343    4.49064254316788   -0.38713769300977
H         5.26874210057572    2.67298748037342   -2.36103047660266
H         7.65539745282523    4.61019448050042   -2.56632733168599
H         1.51998527626205    2.64106918156472    6.71666136994828
H        -0.23794059547015    1.32401579168158    5.61536263566524
H        -0.10934706223971    0.88823629143367    3.20130856585118
H         4.48712714753697    3.98312987830842    4.84636453396243
H         3.95535830862862    5.73313296264909    6.49464098541904
H         2.56718343036616    5.59342898585714    5.40311406334735
H         2.50182910856149    4.87921381470999    7.00851156525264
H         3.70789899111930    2.76234721613136    7.54043238393110
H         4.79911979135234    2.03890916891365    6.35746397913443
H         5.23385566125432    3.55461574797945    7.14505021796334
H         2.49550914647663    4.72942363994681    0.66936933310670
H         2.17445516695852    5.13288485324440    2.36007059856383
H         3.96778030132288    6.14058712233755    3.69362436444772
H         5.14639365229746    7.12970796047784    2.78602755839020
H         5.55934997165026    6.62913622015925    0.45183021715850
H         4.19567017373291    5.96467686663814   -0.45743236159074
H         1.55187795458400    6.73096566624128   -0.09367110445247
H         0.82965562716016    6.82899713953796    1.50912678894070
H         2.27799299744666    7.72667026680539    3.37711239027917
H         3.60911291379720    8.82467045482431    3.01918162067551
H         4.56858599225066    8.72639950799981    0.65780285211638
H         3.55328487944952    8.19655130312156   -0.68096261582177
H         2.06050614881276    8.91570442908407    1.12299179345851
H         8.76358452502538    3.78440801438227    3.06179645776672
H         9.17158362102744    4.36078116001343    1.43431876502642
H         9.94598044510401    5.09244499289837    2.86135684803849
H         4.88048716424395    0.76624401452609    3.49607772970842
H         5.19466294744858    0.91930187329575    1.75790425899240
H         5.86068667735218   -0.47440415671881    2.66945973295143
H         2.67199978293134    2.20949420082474    1.06494752079098
H         1.06943670411371   -0.35954098681580    1.49922677077227
H         2.07362943392261    0.01506451764036    0.09867119075021
H         2.81534394800497   -0.19612910685128    1.68754285328340
H         0.39914317149873    3.28362813017973    0.94672585496413
H         0.67452167718814    2.13110362327570   -0.36455899005542
H        -0.34276273468778    1.68570184091768    1.00238302689663
H         7.56852165672792    3.04825436656843   -3.39408005397328
H         6.46924129212177    4.33853212538922   -3.85533552866998

