82
CSD_code = VIZTED | q = 0 | S = 0 | Stoichiometry = C35H36Cl6NO3Re | MND = 5
Re        3.07049165342585    3.59310614606636    2.45427002101734
Cl        1.12792216290711    6.53555021189730    4.70997180059950
Cl       -0.23035676747210    3.74358974365727    0.28992897766484
Cl        1.88687250471820    0.64965914900006    3.36843613917076
Cl        2.26397100430346    4.50518779826821    7.06522364047316
Cl        1.84680759288555    5.64350698656858   -1.92120098061342
Cl        3.89230281337814    5.87333596561938    3.02759181778595
O         1.33238323173708    4.33808954861900    2.74637006226609
O         2.98442330378584    3.09038326840123    4.61123624388139
O         2.89001687176343    4.57585395463165    0.54987301903402
N         4.71730419650873    3.03211233201396    2.24808908164636
C         2.11656836137333    1.73317400987425    1.87187419080481
C         2.55883895287711    0.78047258509671    0.75850477853392
C         1.43624081380812   -0.21553791816959    0.43270294249355
C         3.83218730207267    0.01418598853922    1.12155496996048
C         2.82224437502129    1.63523405276862   -0.48523219918937
C         0.47122869210010    5.24640142982126    2.42597098054512
C         0.27181452913195    6.40505917548508    3.20956199931171
C        -0.56605944972982    7.42859739372661    2.81824750653738
C        -1.27124506891865    7.33113252693214    1.63197963671064
C        -1.15698902507088    6.18949446104950    0.85933403827534
C        -0.32005781373449    5.16815117507214    1.25828969095024
C         1.89482990539955    2.66956488949848    5.13598276720947
C         1.14840979281437    1.57718892258918    4.64385353076396
C        -0.07762180721064    1.17975498397559    5.14640566846762
C        -0.59757806967396    1.84904805398143    6.23598748400222
C         0.13151337795924    2.87550926861199    6.82699617673581
C         1.34240855544292    3.26574598483872    6.30471230814064
C         2.86493594922988    5.87511090380997    0.55327688941850
C         2.37328729088746    6.57697029629372   -0.57005870466585
C         2.29185164929703    7.95241813438476   -0.60389647639755
C         2.70874815376327    8.70168973229320    0.48478231408083
C         3.21481155030097    8.06419709543994    1.60307182038457
C         3.29370522613673    6.68640494745460    1.62242839778027
C         6.01755160127555    2.73435930028147    2.15170615882866
C         6.62617511866551    1.90541439172848    3.13146990314782
C         7.98035381882882    1.64580562123927    3.03806627982219
C         8.74145495867811    2.16900062681152    2.00608879141417
C         8.14790446177516    2.96521934433599    1.04213011174560
C         6.79681268425892    3.25597957709207    1.08702285506620
C         5.79398463833830    1.36318962214506    4.26550943337071
C         6.02597705336338    2.21747725010323    5.51515920643244
C         6.08201290045083   -0.11165230957595    4.54776942080665
C         6.15390600524934    4.14667699181917    0.05417778798385
C         6.45790915977556    3.67987807195871   -1.37008927425553
C         6.60582245827046    5.59541759308012    0.26146831060366
H         1.08176618709257    2.01186269193803    1.65685444063140
H         0.52888521770479    0.31090906851445    0.14589280083473
H         1.73714252430904   -0.84671895728441   -0.39991452780162
H         1.21323245141006   -0.86221149063508    1.27904022324712
H         3.65278843450615   -0.69963900764780    1.92238920178173
H         4.18864749667745   -0.53458982346873    0.25348533953317
H         4.60633354093968    0.70678924504489    1.43458257906996
H         3.66600373065494    2.29530353678062   -0.31618804863499
H         3.03598299017916    0.99241802811873   -1.33504431561793
H         1.95938896284964    2.24901459711003   -0.72082560742101
H        -0.66193086544438    8.29907198121696    3.44804198829732
H        -1.91805704440860    8.13419584584974    1.31847666251645
H        -1.71710429649970    6.08322061624785   -0.05681150924481
H        -0.60322512042270    0.35122149530684    4.69784335080962
H        -1.55548189423653    1.56597986110849    6.63957514051942
H        -0.25086650173757    3.38099958507089    7.70010902666196
H         1.89556647068446    8.43340119702354   -1.48417360918017
H         2.63752810083813    9.77657108473294    0.46065514632468
H         3.54556086988863    8.62738674699040    2.46151158547112
H         8.45561193883094    1.02731101352027    3.78315589287444
H         9.79867550807975    1.95602731197945    1.95438669864164
H         8.75060035148670    3.36813467677453    0.24311495452658
H         4.74053660390747    1.46647155988844    3.98746853848394
H         5.44755613130657    1.82389955822613    6.34716287177096
H         7.07860796219488    2.22472283414810    5.79037105485018
H         5.70112818104991    3.23689514770991    5.32631665801104
H         5.34690330298170   -0.50061460191783    5.24850937076343
H         6.02883354028586   -0.69411043170224    3.63087446411611
H         7.06664398241701   -0.24574227327390    4.98804193870396
H         5.07115663361502    4.10317606208926    0.19790262679140
H         6.21009232407575    2.62740932090441   -1.48472717503437
H         5.86106794681174    4.25244891667310   -2.07541488643191
H         7.50676376921206    3.81974668367453   -1.61964396983762
H         7.67611418952102    5.69414979204395    0.09347643015743
H         6.08226520605129    6.25137936923849   -0.43023821654998
H         6.38550450242699    5.91899947880186    1.27614336144022

