79
CSD_code = VIZWIN | q = 0 | S = 0 | Stoichiometry = C33H24F18O3W | MND = 5
W         7.61626687483935    1.88700163571795    7.09752760724436
F         8.73293233539999    0.64643166504337    3.85691511934348
F         8.08081956320462    2.61383554007938    3.33587536109933
F         9.94800457894908    1.88675748602092    2.58468990610463
F        11.57559207538866    0.79084995042998    4.70891590091952
F        11.91338051530454    2.40136637976915    6.09725819709601
F        12.02767998919729    2.76389763324928    3.98826759932992
F        11.26998042400268    0.70297761249744    8.31500844406543
F        11.22779894502587    0.28463785785828   10.42625468987528
F        11.24785365386090    2.31673633848093    9.73038119956975
F         9.02947703183933   -0.28821339380802    7.54304690954202
F         7.37793760340066   -0.32002143829744    8.88501090683187
F         9.21985973534034   -1.29473219301819    9.43294999917920
F         3.62438637072322    2.73997505450341   10.87223343869594
F         4.85716224988392    0.98257146129945   10.77436691095644
F         5.72621611234313    2.89721015282849   11.22160650812829
F         4.43844656027772    0.56787226910645    7.82117284658573
F         3.85233247485022    2.42362584916290    6.92299925298199
F         2.82439178548937    1.71387499457085    8.65908270079392
O         9.29265061523648    1.73395949654942    6.00489739070058
O         8.84980333999674    2.11981160035977    8.53930501636828
O         6.31146778478230    1.94610335710876    8.68799033139335
C         6.59583753314453    0.55439273171899    5.98408155191209
C         6.10298933215277    1.68248123236005    5.32914090154852
C         6.55072329958309    2.97816853026097    5.84730204412068
C         6.29532854263116   -0.86335377813737    5.63295221541374
H         6.74181911014599   -1.11798204378440    4.66893626164942
H         5.21936952591852   -1.03975973448136    5.57896119625016
H         6.70735639172420   -1.53636293801132    6.38375265290668
C         5.16263014546221    1.62357302905382    4.15041389590195
H         4.23461574364858    2.13733993836791    4.39571595427687
H         4.94266761719089    0.59438436921414    3.88278035169965
H         5.60824521601129    2.12615852285461    3.29412001614273
C         6.06487271109054    4.24459602534845    5.22011206099926
H         6.53533270954608    5.11059197280202    5.68409436462284
H         4.98282609769664    4.33899347547869    5.33752121113317
H         6.28825682842766    4.26365613037897    4.15177811425236
C         9.83757936995957    2.42987286944694    4.96551200600776
C         9.16674996237909    1.89575977807982    3.66876008202506
C        11.35300074650847    2.08434613578167    4.92974994998691
C         9.70989525902057    3.94266551097323    5.09691443826214
C         9.79082912965021    4.78988060079842    4.00005669112882
H         9.93248594734438    4.39544682095676    3.00604124095437
C         9.70145609945709    6.15936243333866    4.18712311691710
H         9.75796331685598    6.81627125035100    3.33314783912654
C         9.55710873379432    6.68405473842349    5.45961399839953
H         9.49973927914669    7.75301640783889    5.59873148609256
C         9.50951115639827    5.83766710462027    6.55510685538526
H         9.44255993153486    6.24494899590951    7.55206053129942
C         9.57773993594045    4.46645488911909    6.37899776871846
H         9.59162135335776    3.79506316332938    7.23587429293985
C         9.19750710355432    1.14772550531218    9.43488601203828
C        10.75436724961994    1.10356338880370    9.47862210871642
C         8.71758382141498   -0.20413964131709    8.85850693792426
C         8.67620019106733    1.43360750305359   10.84122463040275
C         8.75421973271055    2.75026997254170   11.28223812422475
H         9.14013407367049    3.50987383355112   10.61851312282989
C         8.34306467379451    3.07886567684540   12.55996240466297
H         8.40969742517179    4.10187315502194   12.89540113191909
C         7.84144911236877    2.09891699690027   13.39866423932849
H         7.51549718017976    2.35460829364375   14.39518911759311
C         7.75171263607240    0.79174437913872   12.95460294882244
H         7.35244846592638    0.02484692572419   13.60002673665360
C         8.17223536660797    0.44979842556417   11.68023501994669
H         8.09883065344819   -0.57769630795088   11.36364725872212
C         5.11386817528698    2.53538720640524    8.96211885542923
C         4.81542890567785    2.27820503006054   10.46464525350958
C         4.03641036250204    1.81140550985837    8.10433596485916
C         5.08461807160418    4.04190762168879    8.73122114887949
C         6.29830887281903    4.70910910033802    8.62143959842530
H         7.22472812180292    4.13952572593973    8.69554459986514
C         6.31016369575014    6.08093065596323    8.44025096333514
H         7.24891386358361    6.60561250652898    8.35987875345813
C         5.11898647340617    6.78416154718868    8.36789795328896
H         5.13174709034438    7.85397028921088    8.22491503269710
C         3.91238616765829    6.11691670641200    8.48793879374736
H         2.98306668436460    6.66300795012952    8.44107017524821
C         3.88864137495802    4.74506177838930    8.67483678687080
H         2.94363280960155    4.23512279300046    8.78037699973612

