67
CSD_code = VIZWUZ | q = 0 | S = 0 | Stoichiometry = C21H24F18MoO3 | MND = 5
C         2.41834174174836    3.34432862845798    7.02874800868131
C         1.61387084699726    2.79226942572586    5.99282769373280
C         1.71316296300139    3.37568378235484    4.72231480140879
C         2.37735295975503    3.03695237426514    8.47633748750288
H         2.91572729082826    2.10908970891519    8.70229570334926
H         1.34155862726357    2.91595348315327    8.81020275983961
C         3.02518397726542    4.19033913208985    9.24153065974862
H         4.06109348914169    4.30491581695591    8.93247248478837
H         2.99548243050247    4.00845808815905   10.31268238851007
H         2.49379534309709    5.11440740881185    9.02339864717156
C         0.75384151564007    1.57141738016798    6.26312748008325
H         0.83943842422672    0.88979058591128    5.41194182243612
H         1.12784641389704    1.05846278037480    7.15210837849310
C        -0.71773715316993    1.92445257283790    6.47128911015281
H        -0.83104656201859    2.60251463007539    7.31290826481137
H        -1.28683123488952    1.02052635789487    6.67705479697974
H        -1.12644236801662    2.40018734681560    5.58506334565973
C         1.05912187360298    2.93352976563837    3.47019922184421
H         0.07262407196029    3.40115881436031    3.37910224576725
H         0.91273052736979    1.84649748280090    3.47101372241636
C         1.92102185677324    3.33635762098939    2.27326239880943
H         1.95502245816120    4.41895728351885    2.19640508702938
H         1.50904346426604    2.93476766847080    1.35080510420858
H         2.93533481021224    2.96064927308433    2.40214256285600
C         0.80385544314168    6.70642736048265    6.04116528207136
C         0.84254866091701    7.94031062931023    6.95873797846590
H         1.02276639793614    7.60993890002687    7.97935774082943
H        -0.09828975245753    8.48294035514121    6.90741167403489
H         1.65584608478382    8.58780454348840    6.64640301313626
C         0.44711772853144    7.14704132807869    4.59038938870640
C        -0.34791458188092    5.77682221771114    6.51701043452251
C         5.17912079580246    6.52585300893543    4.73329804010306
C         6.69532120113142    6.28804639521873    4.75168923123490
H         7.04733738354615    6.32563627168773    5.78026140870810
H         7.19644105212312    7.05114670953018    4.15952174903887
H         6.91622638051035    5.30593922559942    4.34319549008099
C         4.89978933189986    7.96185254291853    5.24163792538625
C         4.63410961171479    6.35016516576856    3.30030443836612
C         5.24165444666734    2.14022733216116    5.32703112042262
C         4.54059703811342    0.79126559471594    5.56302386031451
H         3.75724597232260    0.93116344068693    6.30509726490064
H         5.25159813866660    0.04302099631527    5.90601034705774
H         4.08861285286617    0.46965784613083    4.62722662151968
C         6.00416026657401    2.56077359996179    6.61234086454801
C         6.27449189621823    1.95849805794056    4.17943269534902
O         1.95064619080046    5.98571262016970    6.05346052341215
O         4.45304124964295    5.67056857206550    5.50566790868778
O         4.39159785890874    3.12643502038003    4.94400271155557
F         1.16885885369226    8.18546564376219    4.17599045625645
F        -0.83984205087019    7.51237099525239    4.47229840313320
F         0.64686826923737    6.15240617653559    3.71872143125877
F        -1.46992663934695    6.41937006156627    6.85683675546830
F        -0.69072201124896    4.87120384864261    5.59406175181852
F         0.03628698732690    5.09083116066924    7.60151039079755
F         5.39971977418145    8.12783077580431    6.46923703781150
F         5.44036513714923    8.91148784939286    4.47152075615543
F         3.59302470798600    8.21731432889815    5.32644726343215
F         5.17545884664341    7.15566543986793    2.38723796808434
F         3.30663118822335    6.53624771735193    3.26699159204169
F         4.84268578426969    5.09189013975167    2.89405615201689
F         6.25892930631581    3.87478256672594    6.62155883016861
F         7.17489681423647    1.93429576741536    6.77915136030901
F         5.28708442792108    2.30925430353514    7.71460249717499
F         7.07639963341675    3.02078582310782    4.04574606017546
F         7.07055538450213    0.89232893819283    4.33518008643947
F         5.64233950705019    1.79458499181490    3.01769807772833
Mo        3.10342666321511    4.48146832546766    5.59674124099304

