41
CSD_code = VIZYUY | q = 1 | S = 0 | Stoichiometry = C10H24Br2MnN4(1+) | MND = 6
Br        6.02157555596491    2.61882214027643    0.00034932408231
Mn        7.97099390544366    3.98548702936903   -0.00000053424984
N         8.73294193663071    2.79946493091153    1.54361636805863
C        10.06202337653351    1.36942862311302    0.00000041256580
C        10.04770341358723    2.18660503356093    1.30074747571001
C         8.64171488677906    3.61022001029899    2.77187370840135
H         9.22030246203899    0.67038178131757   -0.00001164422233
H        10.97685862755119    0.77695113593163    0.00000528230935
H        10.30527830059329    1.52007569776021    2.13268962930811
H        10.80474224453202    2.97337636579847    1.25417744775298
H         9.47002512579690    4.32594354250260    2.78034820996683
H         8.71864268428862    2.98554017651924    3.66844777565186
H         8.07289082843315    2.02213968966220    1.65854052355498
Br        9.92029180938536    5.35225088963116   -0.00035519499591
N         7.20907570819727    5.17154872699200   -1.54359968618965
N         7.20903595712001    5.17152101814914    1.54360413179008
N         8.73298334156101    2.79949139135127   -1.54362216239265
C        10.04773762351374    2.18662474545551   -1.30073752495708
C         7.30032778877705    4.36080370487654    2.77187966278246
C         5.89428115772383    5.78434643236274   -1.30075007094555
C         7.30036693841699    4.36083998865187   -2.77188221533402
H         7.86910315671440    5.94889385074821   -1.65848472549263
C         5.89424820479340    5.78432411745039    1.30074133205341
H         7.86906191474105    5.94886674731971    1.65850319479074
C         8.64175475565766    3.61025704307912   -2.77187156993969
H         8.07293393579097    2.02216546442028   -1.65856157062772
H        10.30531890835856    1.52010129191347   -2.13268724748765
H        10.80477831017662    2.97339339186747   -1.25414664694418
H         6.47202617432724    3.64508437022749    2.78039606984694
H         7.22341411324645    4.98550611046668    3.66843808489691
C         5.87988754954869    6.60150966346951    0.00000119218939
H         5.63668358961379    6.45086864562652   -2.13268598391696
H         5.13727829688007    4.99753738357438   -1.25420164550261
H         6.47206598224997    3.64512250894092   -2.78040512175837
H         7.22345548193274    4.98554593900822   -3.66843727876542
H         5.63664462331122    6.45083852440464    2.13268690545170
H         5.13724438960531    4.99751676519992    1.25417178533358
H         9.47006496050425    4.32598360795830   -2.78033928745614
H         8.71868569058843    2.98558214852582   -3.66845008190793
H         6.72155185625190    7.30062227735344    0.00001390329230
H         4.96500443283879    7.19391709395341   -0.00000222670338

