47
CSD_code = VIZYIM | q = 1 | S = 0 | Stoichiometry = C10H24MnN6O6(1+) | MND = 6
Mn       -2.24367229294798   -0.00002474304794    7.45067941007643
N        -1.98160052382872   -1.63289269559179    8.67672817267847
C        -1.67007288611312   -1.10651390736416   10.01668387239004
C        -0.73840921700801    0.09963526326944    9.87140514357704
N        -1.36379686707676    1.07978269975982    8.96690455732173
C        -0.44222916699023    2.14552964332014    8.54515534809810
C        -1.12599806943484    3.15476385983040    7.62120922758438
C        -3.07643951053194   -2.61470217880318    8.68252496634492
N        -4.65940733366456    1.17347278357884    8.68917021045682
O        -4.00996869829275    0.15116641569579    8.21929450164458
O        -5.75598273182970    0.99845668799652    9.11602119040485
O        -4.05953062575734    2.23481350095606    8.64406345833170
H        -1.16031591369174   -2.14252008513568    8.33067295888140
H        -2.61002205900893   -0.79548643765709   10.48552588039843
H        -1.20690807967657   -1.87045371039004   10.65102866842316
H         0.21076142776369   -0.21586050550714    9.42476542738067
H        -0.52646392798811    0.53701145987050   10.85337478674253
H        -2.11628678141429    1.55565459725476    9.47766415293176
H        -0.06169405809450    2.67262639807231    9.42771718216160
H         0.40227144184252    1.68374276120273    8.02625975360201
H        -2.05574471790796    3.50025801237944    8.07762619850493
H        -0.46416389808920    4.01455956896466    7.51913109307834
H        -3.97167697974302   -2.12854660264310    9.07986621764750
H        -2.81517130274385   -3.45232593910131    9.33956567524291
N        -2.50537487439189    1.63274302255672    6.22431249699496
N        -3.12390601207028   -1.07980741692145    5.93456830058302
O        -0.47722979548680   -0.15129434084742    6.68230383538032
C        -1.41052143859221    2.61454291908764    6.21870884057936
C        -3.36165700127274   -3.15475924386058    7.28010098311441
C        -2.81692978775770    1.10624386202938    4.88439829302091
H        -3.32663688919772    2.14247180374748    6.57029069136813
C        -3.74887604005567   -0.09970788293551    5.02970883885940
C        -4.04563786110306   -2.14533872970992    6.35651545809396
H        -2.37144405622457   -1.55603766679037    5.42406845376783
N         0.17088269756608   -1.17302034862503    6.20959657423351
H        -0.51508048861205    2.12840979516159    5.82177668686712
H        -1.67161686433614    3.45204781421423    5.56144973120458
H        -2.43218898503496   -3.50034555323387    6.82318803942851
H        -4.02358573184042   -4.01446075612888    7.38239158350690
H        -1.87707391002858    0.79497467535934    4.41552395577136
H        -3.27990253316112    1.87023594033967    4.24997640941385
H        -4.69813777973127    0.21611730321175    5.47593245835537
H        -3.96063861828844   -0.53729327434051    4.04779297648676
H        -4.42655740763813   -2.67225494645480    5.47400860266374
H        -4.88989865819325   -1.68347055589738    6.87575076852365
O         1.26702342762326   -0.99801152874908    5.78175353476112
O        -0.42908861994420   -2.23413173812290    6.25464443311715

