30
CSD_code = VOBGUR | q = 0 | S = 0 | Stoichiometry = C12H10MoN2O5 | MND = 6
Mo        4.66222207079549    8.20701714625218    8.30158125205409
O         5.26768522374455    7.25551850021118    9.74500305268547
O         2.99313525179158    7.17485902717029    8.85661907544321
O         6.02113008005873    8.43068186506931    7.38639344087920
O         4.14165901405202    9.62572826397656    8.96076218467018
N         4.71905194903168    6.30893993410625    7.06715787835538
N         3.35609189547944    8.49400232508622    6.60389777229249
O         2.03074247433250    6.31479117181282   10.67287783010755
C         4.17911634824956    6.39955311943303    5.84859280582118
C         5.57286310148095    5.33550831389875    7.33301420185675
H         5.97721539303712    5.32798891385270    8.33838424670746
C         5.94388423342200    4.39108843645235    6.38670442809072
H         6.64225457858149    3.61031863626975    6.64170862151807
C         4.50902193357329    5.50081019008240    4.83479976939074
H         4.09329478329157    5.60629575106151    3.84559511932567
C         3.25494019354763    7.52968711640263    5.67626933675730
C         1.49871074750018    8.71753595430048    4.55817779746476
H         0.76739112328147    8.79606665138419    3.76803221395963
C         2.32617317291699    7.61077792595415    4.63908778334597
H         2.23895402873027    6.81134301968615    3.92082353655328
C         5.40470582644064    4.48140416649293    5.11247795274752
H         5.67998339938657    3.77403072572433    4.34481923213278
C         4.35609860841240    7.02151408099714   10.75962922774652
H         4.26291438760328    7.91439085712858   11.40362946807652
H         4.64659355495258    6.15091864063458   11.36850458372408
C         2.56487890044901    9.55774772399233    6.52202836566371
H         2.70392629785385   10.29757974662663    7.30258138488954
C         1.62630370699369    9.71485218100182    5.51329197409921
H         1.00510613287894   10.59549055255778    5.48601847950164
C         2.97225158813211    6.79595906237982   10.08613698413774

