43
CSD_code = VOBHUS | q = 0 | S = 0 | Stoichiometry = C16H23ClN2Pd | MND = 4
Pd        1.69513470349235    6.21804685180480    4.75911169526702
N        -0.41282738617331    6.15719199086851    4.67573732289094
N         1.58760931735641    5.66955805497457    2.60244229907947
Cl        3.91158063102615    6.44505451482063    4.76734154360793
C        -0.47475928058252    4.21741144753594    3.08035728875946
H         0.04416734031809    3.25894634160258    3.11824946500059
C        -0.71881304754796    4.73498469700474    4.51499670256047
H        -1.77324118183733    4.55074487876034    4.78162942744064
H        -0.09748485557761    4.18381569214718    5.23474987718943
C        -0.99347724611783    6.96806311306912    3.60033062043410
H        -0.48756218589023    7.94232508167921    3.62569291486300
H        -2.06248092743468    7.14307006279510    3.80191459838908
C        -0.85430786622031    6.33954726093720    2.20367984684269
H        -0.68399750217512    7.12976825769607    1.47093672050337
C        -2.09439323192864    5.51359531691414    1.81778728133186
H        -2.22646464144958    5.52076089269962    0.73587642255929
H        -3.00124562717916    5.92567228195991    2.25847751366298
C        -1.80269424891297    4.08806902273141    2.32137118537400
H        -2.59879263737715    3.69826478866618    2.95371843523678
H        -1.68529777258112    3.40075973747144    1.48305817424713
C         0.24185394990466    5.26216939789259    2.19935735761057
H         0.30282413482060    4.84833545613767    1.17405198292192
C         2.49759721745264    4.52489051187566    2.50289644876204
H         2.47772012147106    4.08748414353645    1.49351434327160
H         2.22388088658328    3.75883201259146    3.23414169988223
H         3.51063298030154    4.85912963358559    2.73296088138023
C         2.08739362156459    6.75450491724837    1.76018906547447
H         2.08508858883973    6.47279560432181    0.69670133635604
H         3.10846417317035    6.98688822229592    2.06782655719811
H         1.48099815785468    7.65174170967809    1.89293800309524
C        -0.87952342806635    6.65732432303436    5.97992057844472
H        -0.97880632897272    7.74757386029285    5.90272633529304
H        -1.87487640547028    6.24712158741161    6.21602426806356
C         0.11615089431735    6.36609121622375    7.07663056235898
C        -0.28506931012903    6.22447296209824    8.39629415244754
H        -1.33728962013347    6.26557452377933    8.64676009294249
C         0.65973095390186    6.03494124394472    9.39056324827373
H         0.34512297481354    5.92485724798578   10.41838257981199
C         2.00239113492478    5.98870807095627    9.06223736293754
H         2.74189224221491    5.84504192738484    9.83712824470713
C         2.40885080157593    6.11933381007227    7.74129362671358
H         3.46421801198175    6.07955083327813    7.50562122656379
C         1.47550189387106    6.31908649823548    6.73168071024928

