45
CSD_code = VOBJUS | q = 0 | S = 0 | Stoichiometry = C18H20HgI2O2S2 | MND = 4
Hg       -6.68613891858585   -2.11570138676613    7.81496876254321
I        -5.11355025070996   -2.30767387329681    9.91844015858443
I        -8.75843828508805   -0.96332081003690    6.71446815954558
S        -5.46722001812013   -2.98412359632330    5.17187301053344
S        -7.23984650049518   -5.11970657033789    7.50809174871761
O        -3.97365395668592   -6.34837756359906    8.78251732502591
O        -2.48337292365737   -4.32625443851361    7.46247392910610
C        -2.06977222052562   -4.97174508619713    8.64927934380471
H        -2.50613000897577   -4.47786844691274    9.52550186041584
H        -0.97502451504113   -4.97062619154840    8.72727349340546
C        -2.40951326071166   -2.96086289585637    7.40405146444160
C        -1.78138271812334   -2.17005284258662    8.35938629113820
H        -1.29546905638296   -2.61898389586901    9.21005404938216
C        -1.79091361836697   -0.79115607615880    8.24161157364201
H        -1.31132346242773   -0.19561827303913    9.00281556201849
C        -2.41794502499410   -0.17962285105188    7.17141126480414
H        -2.43843432878021    0.89590568505010    7.08916114807624
C        -3.01338029809073   -0.96218650683229    6.19900732706288
H        -3.49520960710055   -0.50379194838445    5.34661044470478
C        -3.00721035341306   -2.34755202316609    6.29254032187634
C        -3.62892223002567   -3.16959524071983    5.21297151116034
H        -3.41833532086662   -4.22655058767584    5.35465923223851
H        -3.28867676956269   -2.84396149596668    4.22910376529392
C        -5.99191057946947   -4.72718409244632    5.08091862054534
H        -7.03659674715834   -4.69590964848197    4.76788433085419
H        -5.39829473579132   -5.18965521225960    4.29152854242667
C        -5.83838791061928   -5.47963849093732    6.38526418581468
H        -4.91392010992575   -5.21640627506754    6.90184441136017
H        -5.86065601641857   -6.55562546161072    6.20040463330449
C        -6.65311309113117   -5.92730489074534    9.05727173855407
H        -5.89425437614375   -5.28691906500459    9.50347634817606
H        -7.54387473110536   -5.95029027325360    9.68403471368441
C        -6.11722411786547   -7.29521737188276    8.80563914707209
C        -6.95956038644866   -8.38792697621108    8.68236034108880
H        -8.02537240825735   -8.23791446374725    8.77196396013296
C        -6.45083863229662   -9.65359066854041    8.44530234015301
H        -7.11806577842429  -10.49595069917387    8.35172895310249
C        -5.08419441192061   -9.82910218346134    8.33407099139605
H        -4.67605636986566  -10.81225080499680    8.15472666592337
C        -4.22258093472466   -8.75009292370196    8.44895861684876
H        -3.15932020327962   -8.90915319682091    8.36125010738351
C        -4.72943002940333   -7.47769388037078    8.67625054733104
C        -2.57923451816207   -6.40923935868972    8.59490967513478
H        -2.33729604833158   -6.84888043184753    7.61815517072967
H        -2.10285421651692   -6.99702671496425    9.38978421146254

