66
CSD_code = VOBZAN | q = 0 | S = 0 | Stoichiometry = C22H28BMoN7O4S3 | MND = 6
Mo        1.54949615658571    3.11810049200530    1.85117672299466
S        -0.44554669939368    2.63851648878760    6.01106392162326
S         3.47670304843976    4.37024763164747    2.35724741003521
S         3.02328223783343    1.26637015137494    1.87788944535431
O         6.07565177036296    4.80897056574593    3.83176416161059
O         7.03351238443462    3.02042072283981    2.86480638998244
O         5.94588118971982    0.03705760921241    2.06348931046372
O         5.84484216422830    0.85343463785607    4.15496084054400
N         0.90696345498626    2.88630462421558    3.62257053222992
N         1.66866322848080    3.43808495568633   -0.21412126163081
N         0.55903621547900    3.73037315134310   -0.92770685511449
N         0.27439394832556    4.83696208072720    1.74305879790177
N        -0.70706932206695    4.91883761553857    0.82727385420489
N        -0.18019981696094    1.97582278006652    1.25076166263093
N        -1.09888010089402    2.50529659011839    0.42401218579912
C         0.30940643606518    2.78253324607779    4.64609743005384
C         4.71233412384200    3.19720741423744    2.73414854398097
C         4.50573402465537    1.87509877544215    2.54775580116338
C         5.97763251088260    3.77768865295390    3.22010012787643
C         8.30004038612917    3.47939712778982    3.31308005223170
C         5.51237481662098    0.82864164667140    2.85756810982530
C         6.82046945586228   -0.09754934810753    4.55579424282404
C         4.10840597772644    3.11420365946676   -0.71551896414028
C         2.69868851214723    3.39927149898384   -1.07931288999173
C         2.22685381890926    3.67189174394187   -2.35967788445767
C         0.86301708278214    3.87649018003823   -2.22522304258560
C        -0.12183731234336    4.19944053400750   -3.28812513821343
C         1.08921359373742    6.18057565449944    3.67870337084995
C         0.17120482575162    5.89824102170624    2.54727004176617
C        -0.90952675655263    6.67655124542290    2.13074918697321
C        -1.44053878377086    6.02711997922367    1.03027721967041
C        -2.59644332328243    6.42540075859196    0.18690114363847
C         0.11126383520953   -0.12389964960180    2.56038211179759
C        -0.63556747350239    0.78954158931256    1.65885388101762
C        -1.88330057658862    0.55921579479819    1.07735117840481
C        -2.14333122836506    1.66843622302874    0.29260661843898
C        -3.32789253928668    1.94444558213271   -0.55995957169930
B        -0.82062678872091    3.84629445668679   -0.25518977331859
H         9.04307259020976    2.89039045539248    2.78096989655057
H         8.39380004770840    3.33269202551655    4.39147510158563
H         8.41629221888305    4.54228917249855    3.09060213029003
H         6.95143806506511    0.03445868743343    5.62676791562566
H         7.75843158509113    0.08201215063567    4.02624201273523
H         6.47731243618741   -1.10962694850463    4.33099150383326
H         4.73095852471143    3.17588726576735   -1.60444090887820
H         4.20903950828321    2.11420372013015   -0.28819703636304
H         4.47199196088697    3.83639743351350    0.01851868319185
H         2.80140357644923    3.71393792217747   -3.26223750382699
H         0.38823035993532    4.26715974333936   -4.24486319647389
H        -0.61319570643239    5.14804656609660   -3.08169546839885
H        -0.88683874604718    3.42808563256756   -3.34992298580637
H         0.73022218975406    7.04403187547605    4.23266280271924
H         2.09254656706045    6.39078511511570    3.30790516380643
H         1.15789214317972    5.32874549103130    4.35504557030765
H        -1.25447486446351    7.58948144390266    2.57114439406531
H        -3.02847776949345    7.34339664928976    0.57486189595330
H        -3.35850319037233    5.64850372151094    0.18769494393156
H        -2.28355690788358    6.59117558595745   -0.84229625759119
H        -0.50298973996124   -0.99033683495150    2.79122547487441
H         0.38558904756923    0.37351494447025    3.49079131383700
H         1.02952230242836   -0.45846004867644    2.07732313219642
H        -2.50812975218099   -0.30015839096315    1.20957630128191
H        -4.03948566316070    1.12917094524507   -0.46582253684824
H        -3.03756179985714    2.03883538901871   -1.60470175205964
H        -3.81101561472086    2.87162966258399   -0.25820447142055
H        -1.65541784650287    4.11341274002284   -1.04029503381485

