31
CSD_code = VOBZIV | q = 0 | S = 0 | Stoichiometry = C14H8MoN4O4 | MND = 6
Mo        4.23521482544784    0.76279068930347    1.35211103607513
C         4.67469493503388    2.61880669185220    1.80636764166416
O         4.93344129361313    3.68551196290656    2.14031871162919
C         3.06015038128705    1.38580100049215   -0.09477787600088
O         2.40204773968809    1.83234847600665   -0.91490655111667
C         5.75722563433713    0.67725976240804    0.09575822867392
O         6.62826668337794    0.61436514490701   -0.63979982985778
C         2.64774832513238    0.93281153858018    2.50867890248467
O         1.67590504717671    1.07933199038371    3.09035947978900
N         5.49377536636013   -0.14171596956976    2.78311954522171
C         6.30361266070586    0.41494602735578    3.68220614970841
C         7.21250581996905   -0.30330128825037    4.43137627110976
C         7.30832941063311   -1.68458839841518    4.24679483403982
C         6.46828007757491   -2.28590032517250    3.34315076955874
C         5.55267141608014   -1.48946705820583    2.63110353138150
N         4.64779942440203   -2.06975347259274    1.81972222395806
N         3.90158056035755   -1.21241026739898    1.19252382323295
C         2.82522001792173   -1.77380411088325    0.52774363570522
N         2.12008426724843   -0.91239460467467   -0.19921922138028
C         1.05851521822957   -1.33835032121936   -0.85008369316119
C         0.64218053349045   -2.66345337014486   -0.83168534045291
C         1.37756362844872   -3.57158753086293   -0.08186360006102
C         2.48426781623371   -3.12954569467783    0.61719844796157
H         6.22292988202085    1.48954058884625    3.79312035509001
H         7.84546446781602    0.20366414682332    5.14148518159617
H         8.02485105129219   -2.26444730225291    4.80788943367323
H         6.48093940288409   -3.34708909460331    3.15548630560256
H         0.52684895304114   -0.58520008435918   -1.41607649959053
H        -0.22567772347857   -2.97468856957317   -1.39073072838067
H         1.08839376142680   -4.61158492315029   -0.04108730247750
H         3.08296912226932   -3.78819563387249    1.22601613432604

