62
CSD_code = VOCCIA | q = 0 | S = 0 | Stoichiometry = C33H24O4Ru | MND = 8
Ru       10.42183965017192    4.15525944681557    2.90694999681263
O         8.21844614104809    4.30760757927033    5.42280936639318
H         8.73813728976700    5.06044991257730    5.75196018517599
O         9.74363217994014    6.33971760982169    4.50432579880995
O        13.22876592442683    5.21388993273023    3.02089230539507
O        10.24971062951814    4.48535269615134   -0.06658022971790
C         9.94304129290327    6.09845730422107    3.33647738550275
C         9.82974534379640    7.17712512126948    2.28444141744643
H         8.97349622920304    6.95985842701265    1.64622523098627
H        10.72329005352480    7.19233865029907    1.66071645326060
H         9.68627755196588    8.14875698937614    2.75756642996978
C        12.16372939561865    4.78501842237436    2.96692594994999
C        10.30500295534994    4.41983611036321    1.07850878039184
C         8.97142169340807    3.54103931083353    4.60071220324466
C        10.28925057255137    3.05788177815510    4.85524123851883
C        10.59805808425248    2.08337267925564    3.82045453711226
C         9.52506947080092    2.07162291642327    2.89502000128356
C         8.53124103387913    3.03622696368830    3.33412492637537
C        10.98212209165172    3.15865078488667    6.15523472666398
C        11.36236156473736    4.39000970474879    6.68180892294043
H        11.18514648582639    5.29613429833488    6.11683132424370
C        11.99179586687257    4.45862663731656    7.91114799479675
H        12.28583770214788    5.41932029214953    8.30741784050024
C        12.25099724233051    3.30221638695998    8.62682200658559
H        12.74721889916069    3.35730720088201    9.58432081200925
C        11.87304985493978    2.07423883515256    8.10983369331231
H        12.07100683303691    1.16859609921746    8.66414213344838
C        11.23916537549497    1.99941509696685    6.88413803019263
H        10.93818067864280    1.04051108111133    6.48725958233195
C        11.72195907982575    1.14031466629492    3.87996072329919
C        11.50860475784548   -0.21739726353571    3.64698959518487
H        10.51701781715688   -0.56884708632571    3.40143762530568
C        12.55572456972059   -1.11472919898073    3.74183390874033
H        12.37656781302636   -2.16366502554466    3.55678419155372
C        13.82493384733409   -0.67517010925089    4.07762288541739
H        14.64056761487967   -1.37881583660892    4.15150670573655
C        14.04397937338215    0.67130917819820    4.31888094893912
H        15.03121082035648    1.02164447337280    4.58103197030846
C        13.00265284096111    1.57308523395940    4.22067789004386
H        13.18109358494364    2.62612969062338    4.39631953817242
C         9.39072754548587    1.14607664114005    1.76013889443487
C         8.24049443956221    0.37417685221685    1.61310660545945
H         7.43931426942858    0.46575865064944    2.33225005496326
C         8.12823592018052   -0.51050381446569    0.55639702490328
H         7.23107075898130   -1.10219752999841    0.44944492613276
C         9.15890474524843   -0.63957126384396   -0.35912128417265
H         9.06630305767664   -1.32958754451332   -1.18446177039093
C        10.30884197099278    0.11990090749982   -0.21466957053610
H        11.11487518967830    0.02420812593402   -0.92680231007538
C        10.42555648215138    1.00806677881933    0.83660677354228
H        11.31802453985617    1.61416403536917    0.94588030046240
C         7.16790852585012    3.15664691737972    2.78949758148366
C         6.07150960382620    3.16450982923478    3.64872473574546
H         6.23131867624692    3.11078791260790    4.71461747640403
C         4.78827425330655    3.24405608661498    3.13933335665161
H         3.94581750452634    3.25089570447843    3.81535747008952
C         4.58103440691047    3.30960998332048    1.77225167036408
H         3.57753056795676    3.36790731568029    1.37751190894717
C         5.66714256041246    3.30634783979282    0.91181510860729
H         5.51340661536908    3.36490829533839   -0.15565793152830
C         6.95158514912810    3.23461692504601    1.41412464152118
H         7.79697301082488    3.24832436113312    0.73847931035061

