64
CSD_code = VOCDEY | q = 0 | S = 0 | Stoichiometry = C29H32IrNO | MND = 8
Ir        0.94246555902385    8.15210657608513   12.58170605511546
N         0.59476575866072    7.67394012401064   10.64388320010237
C         2.49685201581665    4.22076049342775    9.19941577879557
C         2.80879523075992    5.47309173230232    8.66678553843679
H         3.56196449602878    5.52939234898100    7.89657985437585
C        -0.07842695461969    8.50109849845426    9.88957449203641
C        -0.20602588505798    9.70644983566971   11.97099076442638
C         2.96369568141692    7.08886209262760   13.09264175785935
C         1.20743317325070    6.52349374100299   10.12684035119238
O         3.18757051704367    3.16764244529559    8.68134776778618
C        -1.21506629284554   10.72846897730776    9.97739607494559
H        -1.46237440288455   10.69981067284647    8.92543716884924
C         1.53137253826890    4.13269336661170   10.19846948470704
H         1.26436398635145    3.18094549936338   10.62957132397309
C        -1.28285519766080   11.88849197168170   12.11299545755172
C         1.97954929098110    8.67921765265640   14.45025124116972
C        -2.26909253085986   12.94981435677367   10.14548843125729
H        -2.49924623818774   12.91661476456348    9.08950205146882
C         0.90264684493349    5.27417082123706   10.65883229619234
H         0.16156973093651    5.21355336384512   11.44146164196733
C        -1.66964940291713   13.01961117973191   12.86262512557176
H        -1.43808449515935   13.04412537518594   13.91821686290522
C         3.21135860451756    8.38782641792201   12.53000891054133
C        -0.60833654236408   10.79760760443383   12.70038321772700
H        -0.42257436392613   10.84005257228984   13.76438633395753
C        -0.53659530568490    9.68393225898467   10.57371282920828
C         3.57584813661350    5.80717504345260   12.62153752661787
H         2.94064815623316    4.95656384831520   12.86354103886909
H         4.54310282414779    5.65532516937154   13.10740205003645
H         3.73818580380547    5.81184711750854   11.54506904300338
C         2.92577742657215    1.87992900784575    9.18318903010081
H         3.58269242414772    1.20976312962178    8.63104337971526
H         1.88489875803486    1.58585073390140    9.01392163322562
H         3.15467073371422    1.81054145117811   10.25160458134379
C         2.16855995160622    6.60697349780701    9.11602863387798
H         2.42176578601634    7.57145166128490    8.70087423690257
C         4.10589644640401    8.65694608632933   11.36157823542387
H         4.08444336130678    7.83117417822454   10.65131276937881
H         5.13812156696437    8.78353831649710   11.69717073181666
H         3.80961483866887    9.56646178238760   10.83934802361414
C        -1.59068973351271   11.85438848985911   10.72441984366831
C         2.67744216495009    9.36348419276576   13.39911359340894
C         1.52254390493145    9.30404901148214   15.73664054348163
H         1.24606996276944   10.34511170599859   15.58750651648177
H         2.32764565657991    9.26950458164032   16.47460024221229
H         0.66330499684605    8.77686464123356   16.14583136124009
C         2.90841508494378   10.83945667430071   13.31604612689986
H         3.10678845310412   11.14976671816230   12.29190822011696
H         3.77099483281471   11.11530523514885   13.92739593170029
H         2.04582752839596   11.39749116217885   13.67412473210572
C        -2.62756865881562   14.02935310384582   10.90093697196249
H        -3.14637908112212   14.86394689271117   10.45191800459273
C        -2.32502824698977   14.06351858074874   12.27266414365032
H        -2.61751263082963   14.92450832188826   12.85647789883886
C        -0.40838732805074    8.24400692799925    8.45313735892642
H         0.14522279564062    8.92506323092604    7.80727142876593
H        -1.47033859135779    8.41886572129024    8.29147571670636
H        -0.17094763958671    7.22154453145255    8.17098057806537
C         2.22666103891730    7.26207886111707   14.27705173857578
C         1.92003470215698    6.20750732266144   15.29440709842144
H         1.01051777069204    6.44501171699610   15.84087438079791
H         2.74102454982713    6.13814126018028   16.01205463033848
H         1.79585049059950    5.23259052714491   14.82744544186888
H        -0.39679405296872    7.51972482125183   13.00569257112822

