92
CSD_code = VOCGAV | q = 1 | S = 0 | Stoichiometry = C31H58P2Rh(1+) | MND = 6
Rh        7.58242516149321    6.07645133071154    5.10978806844850
P         9.80989524133063    5.66043861110251    5.62812261028380
P         7.27728630481597    3.80942972598443    4.62640558961633
C         7.45099102601371    7.87885766247862    6.36869948590662
C         7.95842783175346    8.26289566393847    5.14541117864528
C         7.15848664356182    9.01757384601257    4.11149137946209
C         6.43446750503534    8.08709634389117    3.12211887217506
C         6.02994671962392    6.75995290128554    3.70997319709221
C         5.40439875951381    6.57323713023392    4.92293478679306
C         4.96426580920189    7.70627017759922    5.81908321582389
C         6.03984983620805    8.11602397088743    6.84064421299075
C        11.16658050326436    6.22450153945428    4.43827330301358
C        12.13304193186902    7.06781171490795    5.27671712951847
C        12.14959917302299    6.50209407313914    6.68570681977675
C        10.68938066926187    6.38412674742888    7.12331032311573
C        10.73766174433082    6.94935158814630    3.15533647119335
C         9.68714260667876    6.15475380363623    2.39174881383766
C        11.94927240784300    7.19355905328898    2.25366658299422
C        10.48241480739077    5.64443629633548    8.45098363477668
C         9.03367188960483    5.78486498497540    8.90677345357929
C        11.41077078442341    6.18257352489490    9.54088227348986
C         6.74679506953970    2.66739168236385    6.03653578120019
C         5.34298277275432    2.19561556586554    5.65912803492014
C         5.35365188738594    1.93234038596635    4.16608837373477
C         5.90321048597794    3.18809937680345    3.47966377234190
C         6.85672224342616    3.19609319456870    7.47340309656095
C         5.98134298637584    4.41526950353854    7.73587707299889
C         6.53282474112185    2.08828330833146    8.47760859545258
C         6.24084748759313    2.92214404424170    2.00232562411878
C         6.70779833657893    4.17666662928740    1.26799533415246
C         5.02033670652587    2.36020716890671    1.26697630077576
C        10.23603005540598    3.86665238768940    5.79176181524521
C        10.11997069732038    3.04321181277369    4.51216752185070
C         8.71240389214710    2.87567367569783    3.91518036977859
H         8.15407928958616    7.74083820355670    7.18618283435273
H         9.03748416600246    8.39079885214018    5.07620892514821
H         7.82817398769030    9.66891102620015    3.54817935376216
H         6.44111703532856    9.65893252144888    4.62538031716653
H         7.08659562623538    7.89774781903067    2.26688476518391
H         5.53761892332409    8.58178391851684    2.73524575867823
H         5.92547387441246    5.97787671491662    2.96366646882608
H         4.85729374587262    5.64317946355192    5.06590004103273
H         4.06795068905751    7.40158136012986    6.36085397200564
H         4.69022590837599    8.55686465145603    5.19342050783639
H         5.93408144159327    9.17788933442724    7.08599752364347
H         5.88717879174061    7.55996622169253    7.76775596836514
H        11.68362681622459    5.30406151050649    4.14234753302369
H        11.79205832556522    8.10575464502976    5.30632918633605
H        13.13194402017610    7.05473782132966    4.84263701192140
H        12.70325684505160    7.15866576456705    7.35535950914186
H        12.63521149342310    5.52449515263759    6.69456737597211
H        10.29941164362097    7.40484981288797    7.23735798645672
H        10.31206801197019    7.92286327973767    3.41797543188421
H         9.37187904551573    6.69662048908685    1.50322997450628
H         8.81199068358496    5.98909404555388    3.03501926021593
H        10.09002451391760    5.19448604350295    2.07658743130116
H        11.62882147480009    7.64331559035574    1.31721240144226
H        12.45307931730720    6.25684119516747    2.02464366982475
H        12.66338732655242    7.86591727755412    2.71946960711349
H        10.71093166233689    4.58349559523848    8.31120565689129
H         8.81690870441226    5.09273678758607    9.71634052193576
H         8.36064380837584    5.58091803267461    8.07584379977908
H         8.84838460305056    6.79395542416685    9.27009653574592
H        11.14593039912308    5.73588161144505   10.49598558182196
H        11.31217490260439    7.26207219510138    9.63216668015022
H        12.44981689404450    5.94225945758666    9.33659596230389
H         7.42175518771149    1.80446527203769    5.95995630421446
H         4.60401888502207    2.96592099951637    5.88254695886986
H         5.07644852920869    1.29574669998055    6.21184142409512
H         4.34910239125382    1.70748004181452    3.81070059215111
H         5.99178935093467    1.07469069430334    3.94271802396130
H         5.12034615909460    3.95687227195866    3.51290546934343
H         7.89846699471314    3.49013797893185    7.63939165852218
H         6.13838516167169    4.77423036198598    8.74997316213739
H         4.92700572431634    4.17651658626166    7.62917056147226
H         6.24346980509988    5.21497907700944    7.03485129399903
H         6.76979154925565    2.42218384490861    9.48469204833042
H         7.11283531306420    1.19143294108556    8.27327832463589
H         5.47748821757838    1.83276011133165    8.45021562054024
H         7.02966931270364    2.16608018588709    1.95072024695620
H         7.11676872926499    3.90866458332015    0.29670210963449
H         7.47565936782559    4.70366077954805    1.82811332279078
H         5.86899350419159    4.84865696024183    1.09690895948194
H         5.23234627511778    2.30811874865507    0.20201853833485
H         4.15461026568089    3.00370088235694    1.40884258578538
H         4.77085293865746    1.35919908878178    1.60451891369110
H         9.58168996950440    3.44121964335472    6.55546383247561
H        11.26840760325047    3.79626739165181    6.14723702340832
H        10.52353741542439    2.05099584116546    4.72839533394142
H        10.77031582826886    3.48029676374275    3.75213995726150
H         8.75090895316937    3.17315294075805    2.86635942272723
H         8.42501787874542    1.82072806425184    3.93940766180659

