58
CSD_code = VOCHED | q = 0 | S = 0 | Stoichiometry = C29H24O3PV | MND = 11
V        -2.32165590480541    2.48093691359832   13.41522034635921
P         3.40623540405282    8.59230228999154   11.91018211397834
O         3.43311976265082    8.96700296722246   10.49225624879358
O        -1.58320987717762    4.00306681595393   12.18414112290100
O        -0.54051976734743    3.43021342667067   13.97541287873461
C         0.38927037950940    5.23116740034319   12.71800393408438
C         0.25270992744665    6.07573247361106   11.61987937384286
H        -0.58861716682699    5.93778699221475   10.95689596854423
C         5.02632319599190    8.05414955056138   12.54860796653832
C         2.88068404558217    9.94790088952695   13.01025271683164
C         5.39190309301417    8.15004137224923   13.88458654847753
H         4.70903428513760    8.58139343361870   14.60314375574654
C         1.18833109626061    7.06751494222346   11.40143738377979
H         1.11368082913385    7.73335625564012   10.55354487041414
C        -0.62411851899345    4.16967798954907   12.96939517385488
C         2.80429734483042   12.32337942686395   13.34985211684284
H         3.01098938222926   13.32586035559690   13.00497782541879
C         2.26009108193435    7.21943863191113   12.27230132919652
C         3.14726218315410   11.23594035034323   12.56710423955928
H         3.61422190915768   11.36466602800157   11.60102965045575
C         6.63992956715408    7.70794915771151   14.28599457545005
H         6.92818770467958    7.78289130744174   15.32458841758564
C         2.25994898357772    9.74745398198349   14.23577487240496
H         2.03464565194494    8.74497636357908   14.57178835256578
C         1.91792026412519   10.83766425098857   15.01611834516157
H         1.43317827164735   10.68466807118802   15.96958956640506
C         2.19283307219006   12.12293029588953   14.57693963741207
H         1.92349226906576   12.96984520105401   15.19088495450317
C         1.47085997756301    5.37489949843059   13.58289204979694
H         1.55937457187896    4.69985507948574   14.42161425920864
C         5.91270915568672    7.52695131398944   11.61985486333927
H         5.61034347266482    7.48199135684834   10.58337818077967
C         2.40622969224938    6.36636408671260   13.35987517973594
H         3.25533505388211    6.47329889726780   14.02021586091086
C         7.15965234202249    7.08622094191171   12.02462581819219
H         7.85016545646706    6.67645696919571   11.30223363938865
C         7.52117303035299    7.17381360554767   13.35927412896048
H         8.49424652095936    6.83071630964225   13.67879140581171
C        -2.92112910827247    3.95724960730378   15.07374517279967
H        -2.26875266812261    4.59247956728990   15.65778801467976
C        -4.39553879161702    3.24849685273544   13.48744305292844
H        -5.10917285902733    3.26616023435128   12.67600811338344
C        -3.59760463420362    4.33014756331401   13.90114357602188
H        -3.55539663826486    5.30150183970902   13.42690796169668
C        -3.29272311501024    2.64054060071126   15.39966722911830
H        -3.01872131673842    2.11323747559203   16.30247304087085
C        -0.93782346874456    1.29705015918814   12.23409388059507
H        -0.00491678104043    1.63983022135333   11.80300517552421
C        -4.22948169579099    2.21285450508088   14.43319048139803
H        -4.83168317806709    1.31764995398527   14.49635051671559
C        -2.18125647929952    1.24843876218941   11.56464270619987
H        -2.37480905322509    1.60155448021926   10.56166033115575
C        -1.07321708824443    0.63360818264289   13.47447736305018
H        -0.27655390918835    0.43613478125598   14.17774798535628
C        -3.08304155135807    0.58083384905782   12.39988452432254
H        -4.10046706192730    0.31822839226145   12.14749829285054
C        -2.39947032311692    0.20139723055500   13.57801883113506
H        -2.80629802180691   -0.39996945337644   14.37849407821715

