76
CSD_code = VOCJUT | q = 0 | S = 0 | Stoichiometry = C35H32BrN3NiO4 | MND = 4
Ni        1.37705760432846    9.42027016193480    9.92844553826614
Br       -3.82128153219437    5.10376299085412   12.00630447131473
O         0.83460295696866    7.63165809378644    9.82851011058897
O         0.98164687401440    5.70632104608312   10.92816548002472
O         1.16819994824996   13.27608578283628    9.42073682099743
O        -2.55869541781415    3.52534925874578   14.11381070138871
N         2.25951462441297    8.93807122781837   11.47243699583890
N         1.92306568077779   11.18861790432291   10.05433305538423
N         0.29400280553864    9.93811319995101    8.35252547386116
C         1.11946251643037    6.90639053504319   10.84040351417264
C         1.66831901936440    7.73990282949832   12.03826235096785
H         2.37921651605783    7.15097189517167   12.62669494540302
C         0.47293634106020    8.14907745071234   12.92744182079837
H         0.85604833203921    8.64637444901791   13.82302199049519
H        -0.13626879899412    8.86728584789231   12.36455035009857
C        -0.33961288994005    6.94569578223586   13.29640088845897
C        -1.51250941584310    6.64925831934371   12.61410606135230
H        -1.87518053386229    7.30033081508706   11.83299879337702
C        -2.21490511477624    5.50618287062851   12.92205550502192
C        -1.78145289809736    4.61519527223660   13.90591290817058
C        -0.60863721055252    4.92152555297265   14.58599764303429
H        -0.23486598661566    4.26106415488938   15.35207907303069
C         0.09730250181059    6.07169206160155   14.27989229548155
H         1.00989361735986    6.28641159534018   14.81703766575506
C        -2.14631848291967    2.56999423170949   15.05794267707919
H        -2.90188682114880    1.78667720112654   15.03086303449247
H        -2.10179159350377    2.99589332958476   16.06582854078406
H        -1.17213772373567    2.14482845069236   14.79689608205501
C         3.24430559995263    9.53780135317955   12.05046611560875
C         3.79919328108788   10.77762896904988   11.55475943383389
C         3.12255536235691   11.58798043595599   10.60227776829739
C         3.75629641773102   12.77933798598824   10.20920522458598
H         3.26655475252064   13.41468439894380    9.49189592818561
C         4.98048951797312   13.15195011676469   10.70919207024619
H         5.43382893075784   14.07060381544470   10.36760275026681
C         5.63784082767765   12.35658696756346   11.64128700941957
H         6.60004491822339   12.64850610678660   12.03289355287596
C         5.04385927341499   11.18998525950206   12.05437258281895
H         5.55043261522991   10.55900063468539   12.76965275388427
C         3.83674738055122    8.97460610822228   13.29417586418700
C         3.49110979996297    9.51578526881079   14.52674527470261
H         2.81745469512199   10.35945460489392   14.56810186567330
C         4.01224934419288    8.97727771593821   15.69031105175468
H         3.73706778116323    9.39936434341490   16.64528659815977
C         4.88312011408009    7.90242093500227   15.63002851622833
H         5.28744532663315    7.48284392878692   16.53884184379949
C         5.23785490437007    7.36753687927017   14.40241732244389
H         5.91996355421334    6.53226368580919   14.35147144531226
C         4.71583341900980    7.89795177205924   13.23621105512617
H         4.98837872924406    7.48279403334790   12.27666041170926
C         1.12093781787206   12.05867421843329    9.38970026004675
C         0.01935721911455   11.37463989273295    8.57415407644732
H        -0.04805327811965   11.90527404728331    7.61478165973688
C        -1.34037845411843   11.44143646302174    9.30659640840731
H        -1.25580472016099   11.97724643784284   10.25118952188610
H        -2.07534241906667   11.96083374420239    8.69201785231308
C        -1.72720358905136    9.97377151252348    9.49422582126105
H        -1.28803984666132    9.58390196585266   10.42066843593003
H        -2.80234714333809    9.81188369791406    9.51281692363363
C        -1.03570176620180    9.31036403046759    8.31440031415978
H        -0.95205883853504    8.22794631564002    8.40963611682139
H        -1.54284302046220    9.56487832895691    7.37425759931114
C         1.06279867732770    9.68194143731993    7.12181731903788
H         0.96951728518965    8.61589511194109    6.89597194791341
H         0.64504755762708   10.26334512938563    6.28826317477524
C         2.51252083942073   10.02640882784419    7.34982141413999
C         3.30158244178517    9.14659100084054    8.09804927156997
H         2.91537141239923    8.16325149538849    8.36056031408475
C         4.60887478588312    9.48445987225137    8.41305974108193
H         5.21860994544937    8.80106378431526    8.98556895450413
C         5.13799839200259   10.69165147270946    7.98614304304938
H         6.15241444973025   10.95771199128180    8.24205367270587
C         4.36606121959837   11.55378430059997    7.22812712372816
H         4.77941573961676   12.49069680477261    6.88668774225445
C         3.05708115843720   11.22556566368889    6.91485282189672
H         2.45773267037244   11.91141482225122    6.33336724249397

