31
CSD_code = VOCLEF | q = 0 | S = 0 | Stoichiometry = C11H11Cl4N3OPt | MND = 6
Pt        2.02825587692382    2.11626081548265    3.36014117532730
Cl        1.91917834916035    3.52356934291060    5.18004252852429
Cl        4.36962020936545    1.92536273913715    3.68159030993610
Cl       -0.32875998814746    2.27932948126622    3.11350497910256
Cl        3.47756793841216    3.48813834042075    0.84414048449076
O         1.77931998464949    5.72849070797541    1.28561811188969
N         1.73357754952985    0.52184097931760    4.67646983225689
N         2.13088377062788    0.84548098771889    1.66627799109596
N         2.30068343116484    3.67638733501071    2.09843926786865
C         2.40840423187170    0.48376328750532    5.82333050245824
C         2.15108417736591   -0.46781186712937    6.79610427211114
C         1.16009827550551   -1.40924935796476    6.57303849947907
C         0.46988379095211   -1.36785358728924    5.37115036425738
C         0.78594155624329   -0.38631658608114    4.44910222587851
C         3.05569064696289   -0.10685101929567    1.58634055697996
C         3.27496549190615   -0.81759823590831    0.41955229298160
C         2.51065568784646   -0.52517782557533   -0.69952613131457
C         1.54259438658685    0.46123317139824   -0.60047352205555
C         1.38382710409228    1.12737116541308    0.60243558249250
C         1.64190074206402    4.83877134436604    2.08920856070199
H         3.17484408714906    1.23316701995131    5.96695064872768
H         2.71759337181230   -0.45724061971794    7.71304351988044
H         0.92781176575524   -2.15602105511455    7.31685989675086
H        -0.31057596555045   -2.07770230883761    5.14915220316114
H         0.24680819285973   -0.31204677804429    3.51380384233312
H         3.65369947989304   -0.28441907491718    2.47042925985115
H         4.03999458531824   -1.57662571090425    0.39220427282897
H         2.66870413040680   -1.05245628275330   -1.62783885998333
H         0.92239335724094    0.72486042536175   -1.44156149830471
H         0.63405788497895    1.89866385538911    0.72077772943789
H         0.92469589705411    4.88887931090742    2.93099110085487

