72
CSD_code = VOCPAG | q = 1 | S = 0 | Stoichiometry = C28H32ClN8ORuS(1+) | MND = 6
Ru        2.80962182543109    9.12484875629052    9.57289613089989
C         2.23390037111803   13.10952334612503    9.51075587626487
H         2.04274942019216   14.05598466715659    9.96973695539076
N         2.91174497337115    7.41475715547896   10.63408582512697
N         1.64923618334209    9.80204331758789   11.20542468414264
C         2.96817957930270   14.03743450326818    7.30630067590344
H         2.11988255069426   14.72026088116595    7.20710264988975
H         3.15602809639165   13.56097968319033    6.33949610945513
N         2.55376741065852   11.00992959189878    8.96862560103742
N         2.82157417079294   11.71606970927152    7.92481069982350
C         2.57458519223224    5.21547767286260   12.29249041008866
H         2.43999668196787    4.36370518245431   12.93994834520713
C         5.37724346336661   16.85773990965255    8.08743583963302
H         5.41205654179746   17.93261436968447    7.99961309512585
C         3.12851525110095    5.07734761480031   11.03093548965152
H         3.45578633986905    4.11834155578584   10.66500979453627
C         2.14642432566787    8.98281780917631   12.31755884657689
H         1.47370180573089    9.01205465817665   13.18427812533591
H         3.12539749000463    9.38542060039650   12.61055740818169
C         4.24882558105569   16.17213742163325    7.67174485330633
H         3.40975983398142   16.71378625967404    7.25978912053996
C         2.17871476475850   11.82216103262405    9.99188735932851
C         2.20831497014301    6.48472771062389   12.71549725418750
H         1.79160470685821    6.64022177750881   13.69831110675391
N         2.63282325384619   12.98600482078543    8.22759315063088
C         3.26876802052284    6.19893767685301   10.23040523075262
H         3.69423503385658    6.13667876362968    9.23478116932183
C         4.19554767517015   14.78955810212559    7.77490739576668
C         2.40272664465238    7.56434839101632   11.86944209612510
C         1.94420149707481   11.23810583478565   11.35067384046416
H         1.15566091125059   11.77151088099482   11.89526125945645
H         2.88640742485187   11.34261767696364   11.90149536915799
C         5.27878115716066   14.09958873072288    8.30495142036695
H         5.24953140410496   13.02281519856195    8.39534480034211
C         6.45344310137101   16.16722244448649    8.61808290654372
H         7.33073695491903   16.70282054564083    8.94584891426100
C         6.40178498684457   14.78781372106465    8.72789732906621
H         7.23588093346945   14.24330306099563    9.14238966249969
S         4.01565435518238    8.49954564481624    7.74578628534635
Cl        4.77194963208747    9.89552067129928   10.59816459946953
N         0.76702821475364    7.49277468777164    8.10396126820817
N         1.07091309300610    8.40296330914613    8.96526971856612
N        -0.43162699841629    7.02796242278666    8.40548517250059
C        -0.91548394511018    7.64499414401149    9.50473815505018
H        -1.86880519873353    7.41232409492233    9.92906010121423
C         0.06172982193803    8.54214716049974    9.86546260795261
C         0.21290135335435    9.56729749223184   10.94130310699273
H        -0.31203124450602    9.25446596628047   11.85228646251657
H        -0.24122974873023   10.50283827375883   10.59271723445879
O         4.37414182546067    7.09609001231119    7.62501560239605
C         3.11310051475266    8.92454282025931    6.22834857291659
H         2.19617385618404    8.34503329773421    6.23626364620808
H         3.71999140866662    8.65551758430247    5.37181106368809
H         2.90138728347532    9.98696143718159    6.25453887740083
C         5.51604882790910    9.46685607387531    7.43206210079965
H         6.18171895509873    9.33544624077415    8.27946932790064
H         5.22300361602759   10.50651262779267    7.33987084365045
H         5.98135488482546    9.09549381398014    6.52658469705232
C        -0.97670153369156    4.68455095088745    8.56257426973753
C        -1.01007268225086    5.91895736176268    7.69100876807037
H        -0.40416093495897    5.77556932987375    6.79323959307452
H        -2.03564529813804    6.16482615503764    7.40475657148770
C         0.24816617336330    4.19856471549849    9.00466027914236
H         1.16051437138278    4.69253567257905    8.70043380254247
C        -2.14819791129429    4.05109045071540    8.94997294237178
H        -3.10244701303373    4.42417670614648    8.60734692529893
C         0.29635604545469    3.08413971863707    9.82209680647145
H         1.24927504126866    2.70447849718948   10.15655611953408
C        -2.09598504990512    2.93114042737225    9.76289374483788
H        -3.00984715632754    2.43651231808223   10.05322575108931
C        -0.87491576959833    2.44864663033230   10.20111138668311
H        -0.83599931828663    1.57491225395003   10.83295679572278

