105
CSD_code = VOCSOY | q = 0 | S = 0 | Stoichiometry = C38H62N4Ni | MND = 4
C        -2.68076920678292    2.34576254649533    8.91303452207198
H        -3.64784158627171    2.69493915862867    9.28818822215275
N         0.76053855421494    5.29850811567869    9.68480222833019
N         1.66192928572860    3.38054222597865    9.99553951859592
C        -1.84271499566870    3.28480258319136    8.31859576009288
H        -2.21056949361040    4.31629789484742    8.28026630903758
C        -0.92419110736611    2.95020361690221    7.16615025141234
H        -0.60396804695514    1.91026575703602    7.22503962267915
H        -0.02179118261636    3.57055683663858    7.18512605679386
N        -2.65598320125123    2.99652342172606   12.72639803143178
C        -1.63423079484333    3.18361753278384    5.82546498601064
H        -1.75757007058636    4.25987205124738    5.66745948590559
H        -0.99869262308675    2.80588214330526    5.01861677595162
N        -2.13367199657605    0.93384295747425   12.49216982102284
C        -3.01374524695229    2.53133978952308    5.73144385066946
H        -3.41273746985179    2.74633406112488    4.73606436738097
H        -3.68009282887905    3.00308195217000    6.45460793831700
C        -3.01429600775968    1.01369239760476    5.96223255854157
H        -3.62509296756566    0.53999446331467    5.18809325847639
H        -2.00179977710806    0.62053963761306    5.85014639291769
C        -3.58144036957001    0.57907090334515    7.31557703200504
H        -3.74124248169507   -0.50400263997947    7.27823052539516
H        -4.55992903649785    1.04655094457526    7.45818349762344
C        -2.69871785250471    0.88017045244363    8.53673258634834
H        -3.10842254874627    0.30979508160575    9.37372633895547
H        -1.69069210707111    0.50465945166630    8.34829572556252
C         0.47317949344321    4.02803563140186   10.06979652880801
C         2.08981175552957    5.43014338845718    9.38192176466675
H         2.52901102335940    6.35008706106240    9.05493747257415
C         2.65790508368062    4.22004718354353    9.57754149113104
H         3.67387582407182    3.90941248421885    9.44538584019943
C         1.82908111623013    1.97675813017437   10.28283856413420
H         0.84429319518541    1.63979739336821   10.65033186603325
C         2.89625964583376    1.75603956045303   11.35672246424446
H         2.60957942352210    2.28877145240529   12.26602657770957
H         3.84955826944404    2.16466187511259   11.01306338347007
C         2.18480065057477    1.20335509879652    9.01135261813675
H         3.12312763459635    1.58520887774279    8.60051620993793
H         1.40177304349027    1.36239596722010    8.26885166663011
C         3.06841827712954    0.26921274360185   11.65011544001333
H         3.85880058691821    0.13047513221875   12.39104158963799
H         2.14311599940535   -0.12336091760755   12.07165229620257
C         2.33148416552027   -0.28171448826678    9.31859415560018
H         1.37578168938547   -0.66708056897417    9.68095007128349
H         2.58762682115416   -0.82574119383987    8.40695888382348
C         3.40680703598647   -0.50214950538216   10.37798764126671
H         4.37019862123135   -0.16203248749606    9.99029839620035
H         3.49619978955989   -1.56684599045005   10.60418824662955
C        -0.20760978969004    6.36016059409744    9.54869472354647
H        -1.16248136173497    5.93916803754886    9.88793112448441
C         0.15699422605279    7.56877359549129   10.41419565505958
H         0.25746017893136    7.25669068865801   11.45640855790223
H         1.12099968609178    7.97059938497832   10.09401398969454
C        -0.34608590651005    6.79223829299986    8.08554515403245
H        -0.61062817192961    5.92705252162902    7.47698044748586
H         0.61057983920181    7.17819820835299    7.72521189418765
C        -1.41213962503115    7.87453693739562    7.95467685555091
H        -2.37786149856394    7.47148801863165    8.26861280104666
H        -1.50191890249901    8.17936253152053    6.91007747444644
C        -0.90581181786631    8.65597038817801   10.27950127627573
H        -0.63153503740136    9.51675365923000   10.89306051843933
H        -1.86396016962510    8.27926646507071   10.64352959887418
C        -1.05892306176008    9.07919123599875    8.82166187713794
H        -0.12225856788384    9.51779850786137    8.46902544387731
H        -1.83649101923826    9.84091219266773    8.73654054112418
C        -1.95430755419450    2.15462729051401   11.92704738116091
C        -2.91695208773485    1.02236778037817   13.61333482265555
H        -3.17771367308286    0.17627808480608   14.21501902953056
C        -3.24958257181339    2.32405190587425   13.75766564317614
H        -3.85518520933046    2.80056976121287   14.50091365518349
C        -2.75867505931143    4.41353434697371   12.47862237998295
H        -2.08273295130838    4.59623025738996   11.62050621675823
C        -4.18474052371024    4.80412357788494   12.08739992067702
H        -4.86980180015798    4.56339801720532   12.90471415048207
H        -4.48487981748668    4.22665203513446   11.21136219927468
C        -2.29530546569945    5.22277010039428   13.69017185198365
H        -2.92642613632189    4.98855566872031   14.55095356045741
H        -1.26846270932270    4.94546422949810   13.93741642631782
C        -4.25497298310401    6.29630135624747   11.78428636318236
H        -3.61031805274913    6.51710253709444   10.93051506660335
H        -5.27592651532403    6.57190724733155   11.51203731874047
C        -2.38125745656192    6.71643192789774   13.39674540500184
H        -2.07403266008301    7.28438209499080   14.27753766344915
H        -1.69456869767482    6.95869237274846   12.58560281529397
C        -3.79930783987658    7.10879175359507   12.99263732059447
H        -4.47963356409374    6.92583555320712   13.82796216844643
H        -3.83694835189974    8.17558384843241   12.76127174819577
C        -1.57783376499831   -0.29907805874714   11.99025038475675
H        -1.08732244876255   -0.04135191393898   11.04301247451226
C        -2.66766101655941   -1.34276078725405   11.73049891048762
H        -3.17025713053372   -1.59192224516212   12.66778293037717
H        -3.41643847084930   -0.93364560053358   11.04996748399850
C        -2.05031719116418   -2.60661940656792   11.14185484996029
H        -2.83183973617377   -3.34448331967771   10.94982210508112
H        -1.57500215799051   -2.36693640479898   10.18813828389387
C        -0.54585442451702   -0.87331065267063   12.96525458671245
H        -1.03290858960409   -1.09923567707427   13.91701958727968
H         0.22603548236145   -0.12480645389403   13.15763498138684
C         0.06921346605883   -2.14886940979906   12.39687029997789
H         0.60164085534818   -1.91615153059398   11.47235388003928
H         0.79334491000267   -2.55706570674650   13.10528644428920
C        -1.01218046432801   -3.18344757838591   12.09989427885270
H        -0.56014501227421   -4.07752895911391   11.66598938008112
H        -1.50210436624747   -3.47627380825289   13.03175438049857
Ni       -1.26082124491714    2.96745434064242   10.19186488547514

