32
CSD_code = VOCTAI | q = 0 | S = 0 | Stoichiometry = C12H11Cl2MoN3O2S | MND = 6
Mo        0.97451151791234    2.44912522638135    2.49278271351537
Cl       -0.90147275332205    2.73972254777091    1.13285893905808
Cl        1.82219668434123    2.01108379937893    4.62696754555205
O         1.69702423939519    3.89915762175595    2.23285725740400
O         1.73516814059525    1.25897760729142    1.65520524783963
S        -2.56172233885517    3.54560919978384    5.51948566927261
N        -0.54658173584523    3.49189996514242    3.90147705488765
N        -1.45196398400587    1.39982784407450    4.19505366633036
N        -0.51041526789337    0.93599609877285    3.34003413529035
C        -1.44190771626837    2.73761326654660    4.46121412134505
C        -1.73578745416799    5.04251039112237    5.16905332633977
C        -0.67513229651272    4.80340720661220    4.27408785204568
C         0.12727961099633    5.86049591872743    3.85393712093602
C        -0.14572433941759    7.12340895088933    4.33457890251583
C        -1.19886163888252    7.34858662367881    5.22042811329150
C        -2.00670714344765    6.31232284056614    5.64847731281749
C        -0.69678917443115   -0.36592086444206    3.22489803297230
C        -1.79126486757636   -0.75294455929948    4.03150579722994
C        -2.25544539972073    0.38451555707141    4.63856832861995
C         0.14305183741741   -1.22536722706545    2.36586301578101
C        -3.37597952426226    0.57396363331472    5.58569734956222
H         0.93669105542428    5.65461846367459    3.16710162599249
H         0.46654433666951    7.95396654223973    4.02011692837357
H        -1.38882021061344    8.34797497543585    5.58018215024398
H        -2.82227615675945    6.47998449823376    6.33345426451488
H        -2.17802236596548   -1.74494968238596    4.14276935605538
H        -0.46607618363989   -1.68411493163369    1.58857561225392
H         0.92621435483797   -0.62378737404206    1.90334401992536
H         0.59391973588986   -2.01994804862883    2.95766072255684
H        -3.02226106066754    0.98506712101187    6.53097988121215
H        -3.84813044133529   -0.38565519318897    5.77645845841584
H        -4.12105945988927    1.25675198120576    5.17782547785324

