71
CSD_code = VOCVER | q = 0 | S = 0 | Stoichiometry = C36H28IrN3OS2 | MND = 6
O         1.94461890831790    6.71466565319087   19.25165477344664
Ir        3.52229198228795    6.61059469042298   17.67814774144178
S         6.36708345238945    8.64768439821758   14.86784945436123
S         2.43916531680548    2.67144524336769   15.80963531231648
N         2.86045093579350    8.26088220590309   16.74712999371056
N         4.10936913204921    4.92599302229131   18.65922689379600
N         3.81326389593079    7.86545960104924   19.39480382913785
C         2.64982392457342    7.54989580507898   19.89121137436572
C         4.66307118744562    8.88662586867978   19.95631523009616
H         4.47029736851760    8.97914983667120   21.03810540676681
C         4.36061428995647   10.23899185265095   19.29893480414571
H         4.59759837646134   10.19886977730066   18.23792209179207
H         4.95487264023878   11.02331812146636   19.76175475459601
H         3.30716598278343   10.48846601306309   19.41301453027639
C         6.12849863442974    8.51427519000255   19.73461549261037
H         6.40214719815433    7.63783186894450   20.31781515116788
H         6.77397837380583    9.33774251327804   20.02992619905254
H         6.29375842625286    8.29125630400269   18.68288315971305
C         1.66076431060553    8.80391159474166   16.93301858259156
H         0.97575678244424    8.24830063719716   17.55946625035646
C         1.29089026503748   10.00659881509309   16.36250542081266
H         0.30659345645423   10.40812400993092   16.54199481919731
C         2.20371174321326   10.68151847301179   15.55661950785744
H         1.94037225479153   11.62427774770253   15.10190220583210
C         3.44628921133152   10.12333439510003   15.34540975631555
H         4.18825853994217   10.60204446014925   14.72559126297075
C         3.75598154904837    8.90425696112210   15.95182403411483
C         5.11591890157834    6.98788976563029   16.50393690258096
C         6.39435837219100    6.40594388280393   16.23579499976778
C         6.93181602590458    5.20324395494143   16.70448339861830
H         6.33820041806859    4.58544512012875   17.35949029220185
C         8.19804197399992    4.82136914410472   16.32485658244689
H         8.61047165824862    3.89150942549170   16.68772812405633
C         8.96107422466666    5.61994447120176   15.47257817667013
H         9.95278316924188    5.30227422092418   15.18737699801831
C         8.45991470367712    6.81000114278888   14.98774158246303
H         9.04085831006531    7.43278660366320   14.32495661237020
C         7.18376808901544    7.19567225363352   15.36831164592849
C         4.97984767805059    8.18266967518710   15.83031847795208
C         4.71438898531543    4.87702565235890   19.84226772048324
H         5.06370395300693    5.81936489474837   20.23906810083966
C         4.90458275176384    3.70219904952403   20.54348501507713
H         5.40289573139696    3.71922525248235   21.49952003503623
C         4.44415647288274    2.50856853302365   19.99553391914391
H         4.57509616088209    1.57590728039877   20.52292037044751
C         3.81982509672923    2.54143483840900   18.76823351648973
H         3.44320951485594    1.64701405665094   18.29712837014162
C         3.66033762851190    3.76596546864943   18.11466499135316
C         2.92106130157309    5.22119468243303   16.32717212982525
C         2.31439577155714    5.17587948296767   15.03260231291807
C         2.02102495877822    6.22381386995632   14.15395934064588
H         2.26775209828629    7.23434370356555   14.43737474752254
C         1.42943114625881    5.96212851111091   12.93948406637030
H         1.20569554243762    6.77588109740978   12.26532974237601
C         1.11390987030504    4.65676864921199   12.56267405165054
H         0.64814511205635    4.47330885311888   11.60595963785195
C         1.39553691974816    3.59791581757665   13.40012975248720
H         1.16026087288519    2.58325185966748   13.11743679539624
C         1.99341933046155    3.86014114050829   14.62319657149350
C         3.04480509665587    3.95199217191155   16.84170537782337
C         2.12561929688776    8.11881952121933   21.16855086549552
C         2.51857285286835    7.57877265918877   22.38672840017911
H         3.21037797336298    6.74749327150302   22.40463828384461
C         2.02130654359236    8.09879998771306   23.56833494379785
H         2.32932640887988    7.67576499783215   24.51359583031630
C         1.13038589236420    9.15856419024043   23.54006757892791
H         0.74423716523011    9.56462886840620   24.46350699246375
C         0.73148823414157    9.69426603179008   22.32733556557980
H         0.03246434959117   10.51770990716505   22.30302804954295
C         1.22550127321007    9.17552171064184   21.14354481765467
H         0.91114402975363    9.58836926846909   20.19457028090396

