42
CSD_code = VOCVAM | q = 1 | S = 0 | Stoichiometry = C12H20N5NiO4(1+) | MND = 6
Ni        5.07986677659690    6.58568128506629    3.22358945644529
O         5.12686613642780    8.39345298235365    2.97444702498656
O         5.33198875588886   10.15704466100829    1.67444630883794
O         3.98486081160250    7.10797972064655    5.26823409744694
O         4.80229386533943    4.65749672494182    3.81356567289000
N         6.97598691370298    6.52358883783553    3.77135320713428
N         9.11616077962525    6.22994741475638    3.38978449539424
N         6.31713968470833    6.74017062441600    1.12042280909400
N         3.63622973187103    6.50674514844268    1.85733661099823
N         2.94752559788564    6.72503550022184   -0.21464301780654
C         7.64358907154201    6.67454756677265    4.94683466462532
H         7.14129119003584    6.90145987779564    5.86545720902023
C         8.97495889013093    6.49221354046377    4.72164045083048
H         9.81046027105703    6.53007811838231    5.38884988135216
C         7.88733024822704    6.25708423594109    2.84313643433792
C         7.55456953344195    6.02835581107594    1.39789547516272
H         8.38771304959926    6.35592169929271    0.75680683675540
H         7.39970392681251    4.95615904215774    1.23516623501512
C        10.35578560816671    5.97082522117133    2.70842178553769
H        10.32297495299989    5.00232475038098    2.20800449784591
H        11.16647317415330    5.96541649767752    3.43347422423619
H        10.55651992197079    6.74578611845883    1.96648333655981
C         2.30549978493925    6.79243716052523    1.87623547727118
H         1.75222079977603    6.87880548773525    2.78970037645083
C         1.86680832204044    6.92589789230899    0.59372177548469
H         0.89488917879431    7.14719155717975    0.20534102356482
C         4.00278507190705    6.47738744754649    0.58049109028184
C         5.40501875790987    6.18419392748610    0.13458315224874
H         5.54066831803667    5.09799626276439    0.08912184238188
H         5.57434424661963    6.59616573680549   -0.87219849572349
C         2.94445482458097    6.79313475895701   -1.65115847276425
H         3.56902067878918    7.61927076223458   -1.99547656797365
H         1.92685214316716    6.96082498012184   -1.99659553127473
H         3.31447636428527    5.86187684318137   -2.08169287988267
C         6.48774033290588    8.17937041760112    0.98412445553525
H         6.30919345817913    8.52667117625298   -0.03913769596393
H         7.50285100521758    8.47007819475823    1.26399414422243
C         5.55998728662756    8.99853112581736    1.93392842662846
H         3.91713997616340    4.33858441944113    3.60342075240439
H         4.59554750638460    7.75498126618043    5.63968432990306
H         3.22705231610193    7.62362317811118    4.97020414996641
H         4.86456073578616    4.67266202572985    4.77790095053854

