78
CSD_code = VOCVUH | q = 0 | S = 0 | Stoichiometry = C41H32IrN3S | MND = 6
S         8.88839436678158    7.03095901917903   -5.66373043875021
Ir        9.81417031291726    6.17699974634691   -3.49185936588506
N         8.90897635654852    4.37700507795242   -3.51109207761338
N        10.74388059734919    7.95952459897347   -3.32369174784929
N        11.42547673014241    5.19166115506921   -4.64749122234118
C         9.65178980908111    7.52706523184902   -8.17330679654314
H        10.47030972619580    7.54226118992277   -8.88995250657335
H         9.32867444260437    8.54742716719192   -7.97520178104525
H         8.80737375160855    6.99993751201684   -8.61773427710588
C        10.04551898888278    6.85257261753405   -6.88767884862308
C        11.22933735993751    6.15733840198804   -6.86184612782719
H        11.78578808376909    6.19085260606358   -7.79171966052257
C        11.83041725547228    5.34018373605901   -5.87858766607281
C        13.06158849480371    4.59594066892003   -6.34752405165399
H        13.77559565380237    4.47336347446768   -5.53443352719453
H        13.54327601089877    5.12001171114818   -7.16938570950641
H        12.78048566984281    3.60252719616299   -6.69719597744155
C         8.14791941179415    3.94354737032626   -4.53532193956438
H         7.90093764162258    4.68255840910852   -5.28538574624717
C         7.67472104979347    2.66893925666672   -4.62572710001685
H         7.01807131287582    2.38104377736161   -5.43185042140308
C         8.10206762030185    1.70607118215464   -3.68537299548898
C         7.76385700929419    0.34482727633043   -3.79931696597888
H         7.10282974449756    0.04125986838331   -4.59820950677369
C         8.28764518282267   -0.57568680345758   -2.93375082204000
H         8.02952855542799   -1.62053694286983   -3.02327325123006
C         9.20451485511362   -0.16867146242710   -1.95559373989677
H         9.66998988316241   -0.91173488039461   -1.32483512756843
C         9.52902435071735    1.15326576586342   -1.80503242735802
H        10.28635442451151    1.43906117652534   -1.09501638220742
C         8.94314844634718    2.13963101501435   -2.62542584134094
C         9.21815668279533    3.53543658999516   -2.51171122203076
C        10.34009002296947    5.48981708403300   -1.65477152293415
C        10.99906714716380    6.16279906580167   -0.63081550744714
H        11.40288559790988    7.15200162296658   -0.80194857391799
C        11.14452039940193    5.60171692263945    0.62571846545057
H        11.67137050936611    6.14178684994722    1.40006634239195
C        10.56893004763489    4.37285178706786    0.90983493244404
H        10.61969268641157    3.96829812181873    1.91028702618868
C         9.91430622705921    3.67465986753118   -0.08316093863578
H         9.40609017603202    2.75637423260343    0.16762202154442
C         9.85167303247735    4.19103925682897   -1.37936448567388
C        11.94656865679945    8.24567603527112   -3.85988930102985
H        12.37681533653842    7.48610674972832   -4.49609533617424
C        12.58870210797483    9.43260267348873   -3.66880851004955
H        13.51719374381480    9.64451050763127   -4.17567897228221
C        12.06077415023569   10.36071686461454   -2.74490447683945
C        12.74042225935750   11.53947340933694   -2.38753629686983
H        13.66783468081948   11.77503420563379   -2.88928733950295
C        12.24897864819120   12.35213704619791   -1.40264843014502
H        12.77140739271264   13.25667517412891   -1.12852022635839
C        11.08853379878603   11.98449136881271   -0.70890033111480
H        10.75145105608448   12.59172434505317    0.11811539239232
C        10.39111429579564   10.85825616508623   -1.05732576299434
H         9.53735508173225   10.55515565610715   -0.47431038061989
C        10.82052042949984   10.04636297856878   -2.12734360364717
C        10.12442098362571    8.88126232770084   -2.56762933968084
C         8.39392481712093    7.20500046868280   -2.51322056289973
C         7.09742967249489    6.80127580263784   -2.21960728352001
H         6.80500705587288    5.77158049079968   -2.37332704629192
C         6.15649227573592    7.70015646764375   -1.74825974741694
H         5.15345539068115    7.36423912651036   -1.52515357058573
C         6.48158684894574    9.04168153889392   -1.60999671730837
H         5.72661663384229    9.75417475593309   -1.31050026581510
C         7.76571235446871    9.46981450807371   -1.87267490124637
H         7.98932884558101   10.52509242617491   -1.83196826139636
C         8.74398785625431    8.55047314622372   -2.26251107650454
C        12.05366802260633    4.23010359490636   -3.83841760746349
C        12.91322308129974    4.61257061899271   -2.80934317394311
H        13.13774321245455    5.65950837169722   -2.66901088112030
C        13.46313258257533    3.66125296257305   -1.97394288055591
H        14.12161476132558    3.97054897760335   -1.17559835520346
C        13.17585197985240    2.31795919547366   -2.15441412441294
H        13.60680703963261    1.57763755211311   -1.49690400491059
C        12.33778672459845    1.92965756384894   -3.18487098241000
H        12.11121584206467    0.88413583717517   -3.33802616350256
C        11.78119006260064    2.87597721998444   -4.02384152081792
H        11.11748668999596    2.57398634587317   -4.82316044540867

