50
CSD_code = VODKUU | q = 0 | S = 0 | Stoichiometry = C23H21Br2N3Ni | MND = 4
C         6.11183873087199    4.70532330544740    1.03059978832768
C         6.32428427393624    6.08619721443819    0.79097821434148
H         6.08145317781713    6.47673525735807   -0.18267495728828
C         6.86446657359756    6.91247776629892    1.73149045302088
C         7.19362419917510    6.35097649095165    2.99536694347963
C         7.02711846796357    4.95319963595074    3.15732098882996
C         7.35353658339412    4.37405536337100    4.40053521976128
H         7.20511831858502    3.30056404551811    4.54912637492493
C         7.83639812747459    5.13600150778957    5.42921412070932
H         8.07754133603929    4.67377313494047    6.37389819011748
C         8.01565707676075    6.51308511892342    5.26254899424813
H         8.40198384546354    7.10489675454271    6.07818373885522
C         7.69631049291740    7.10615663190877    4.07086372406465
H         7.82776282649036    8.16914062745368    3.94600918339410
C         6.43679975368267    0.59465073057603   -0.12492674674319
C         6.96495062633155   -0.39785104133568    0.85642375512662
H         6.73817559064009   -0.06787219023245    1.87641108973884
H         8.04859189731347   -0.47572557600000    0.75859254015711
H         6.52856421220178   -1.38073704581159    0.69624455766879
C         5.70197633110620    2.75688804351585   -0.46900848326700
C         5.46299558844333    2.49732055354885   -1.82201693654373
H         5.10900436766580    3.26906728509046   -2.48432433939582
C         5.72266720478610    1.23072943384535   -2.30852428787178
H         5.55121641589913    1.00832575942975   -3.35117944735454
C         6.20450730901581    0.25738476682019   -1.45129136517146
H         6.40223104797263   -0.74385535952142   -1.79803953088453
C         4.29101036091219    4.74014496391479   -0.55596812335938
H         3.59532859975313    3.98482413731870   -0.93439841102627
H         4.61239692839983    5.36090473096405   -1.40230140857681
C         3.57459129962468    5.58085805042303    0.47231076345835
C         3.17144546746220    5.00369020016730    1.67067506615048
H         3.35264493951830    3.95576575136547    1.85403708606663
C         2.54578281736344    5.76799933971638    2.63773433139713
H         2.24939637163717    5.30733390323140    3.56727394456181
C         2.30212603480225    7.11240353698016    2.41079842764667
H         1.81479459904556    7.71035698368419    3.16631106969660
C         2.67882432990192    7.68714712127499    1.20945604475585
H         2.48231993211595    8.73256083928236    1.02213438041607
C         3.31557610270111    6.92510139966554    0.24540620392047
H         3.60984510884876    7.38053406915582   -0.69038135184829
C         7.09561395038312    8.35798491214538    1.43879716689862
H         8.14236591791730    8.61636452142214    1.58937839387546
H         6.49334073631425    8.97467758608011    2.10449557333459
H         6.82244961717409    8.58845510334246    0.41263952180836
N         6.52621195719389    4.15890780353237    2.16288748357505
N         6.19086938407228    1.82027861433584    0.33983449268431
N         5.40742374009578    4.01489335812772    0.05378827304719
Ni        6.73226134846670    2.34590603151479    2.49987828094911
Br        4.75340678250884    1.94252890915564    3.46162529535911
Br        8.97979929823531    2.20016991837995    2.30626571296064

