51
CSD_code = VODWUG | q = 1 | S = 0 | Stoichiometry = C21H22N2O5Re(1+) | MND = 8
Re        1.44515058485647    7.03409738584124    2.35308975813594
N         6.45745433772367    7.65355166025218    3.80051568763488
H         6.00674155747212    8.02931971399459    4.69281221644888
N         8.70689680251999    6.40810188900512    4.95780141558695
O         4.38698550740634    8.61267825019267    4.81787920318415
O         9.30109432659702    3.88684099293814    4.27802617958648
C         1.74901681194326    9.08817801643800    3.51941005540279
H         1.61460477326629    9.24665438633136    4.57809206273809
C         0.81661988803924    9.32791218941654    2.50727878750692
H        -0.17493034375157    9.72942434652751    2.64270468998724
C         1.46471493816954    9.13735727064790    1.24522791386205
H         1.03300085752008    9.36735473036889    0.28339843660888
C         2.79192579579750    8.75843382870004    1.47489234297033
H         3.56049301719684    8.67851759749417    0.72156396281121
C         2.99917823580946    8.71912279981624    2.90434909151723
C         4.22087620811846    8.50017097393038    3.60809976772149
C         5.47640744394032    8.08364287571530    2.79405219855020
H         5.25722598006941    7.28048373194941    2.08993641978839
H         5.84591107930742    8.95152413693743    2.24215997125855
C         6.53212973536439    6.18173973115159    3.94702222738435
H         5.52368084409633    5.78226197593712    4.06790265064728
H         6.99119837739509    5.76265713224499    3.04955891182509
C         7.39506434932696    5.84236872072912    5.15869010931430
H         7.47917034047205    4.76080306514941    5.24209839738151
H         6.91502014622451    6.23146720682847    6.07438851438580
C         7.81118785953661    8.22424035058468    3.66359451623573
H         8.27111857218710    7.81393215400506    2.76187512730137
H         7.73880425952924    9.31009809355112    3.57870587492922
C         8.65235331909680    7.84364940403465    4.88532064105459
H         8.20712582691265    8.30451503609690    5.78579510682828
H         9.66003441189037    8.23881416847299    4.75400015413392
C         9.80632395671108    5.78306936138198    5.58623212642386
C        10.60506120116563    6.43428374777323    6.51335625070975
H        10.36668080235295    7.44249675374808    6.81528814682105
C        11.70834719204795    5.80530745686134    7.06712700168122
H        12.31925067441174    6.32950217611125    7.78453619218769
C        12.01117242075280    4.50934504151907    6.70334273237232
H        12.86456055453804    4.00815012757047    7.13158443020078
C        11.22171579687072    3.83973968824736    5.78133605844693
H        11.48102155430398    2.83065020211052    5.50614477266875
C        10.12441446122927    4.46402541377086    5.20940846974368
C         9.61654322115738    2.59060473916538    3.81875669937638
H         8.85986579244208    2.35237816729582    3.07272456912420
H         9.56930201990688    1.85493460771637    4.62669581528529
H        10.60542541374485    2.56020155760618    3.35357803853799
C         0.80960764062558    6.06287344780641    3.92371478223186
O         0.45424686182885    5.58225259033529    4.89068335906262
C         0.05318743326709    6.20923128171284    1.25535126754476
O        -0.77569275547202    5.82467779924884    0.58004079770969
C         2.68484051223821    5.60421086425312    1.93182411861102
O         3.53796940182248    4.87335116048421    1.70813197848389

