39
CSD_code = VODXOC | q = 0 | S = 0 | Stoichiometry = C12H22Cl2N2Pd | MND = 4
Pd        2.82529359468276   10.54075792680838    1.02849593199200
Cl        2.21129769272771    9.87289760279734   -1.02841944810511
Cl        1.45870705176133    8.94928031273127    1.80121031557516
N         3.98396525725636   12.25095931279867    0.37517097381264
N         4.01602708187877   10.71939142531596    2.88606308205129
C         3.46640844691381   12.74943783143829   -0.90776285390446
C         2.01378159342062   13.19927613145115   -0.77526562509094
C         1.87820499184836   14.28087170629188    0.28839505396963
C         2.49112835069838   13.74907139306375    1.57847032737349
C         3.95546632437265   13.37036385817872    1.33076449809049
C         4.71396728431951   13.09667566783430    2.63923673042026
C         4.08964197279988   12.02572801963502    3.53314141106228
C         5.33352145824023   10.31585533694636    2.36745661557099
C         6.02918175503819   11.38254477520428    1.51099947206088
C         5.32658765483852   11.70009447264419    0.18793757095159
C         6.14354025907026   12.67454498313015    2.31443082968679
C         3.58191218330700    9.73444342547670    3.87581916156025
H         3.52042177194364   11.93891593679068   -1.63804621327238
H         4.09125581849709   13.58878833505702   -1.25378504192509
H         1.40545936589978   12.32921532450702   -0.48785942089482
H         1.66239559344641   13.55465433559223   -1.74392415946070
H         2.39940335495609   15.19007150049888   -0.02387487024985
H         0.82815684682895   14.53099340743620    0.44233263157321
H         1.93192971940990   12.84528722686710    1.88122436785922
H         2.42804075642107   14.48912138537696    2.37823561796496
H         4.46150707816813   14.23386305332993    0.86061997053413
H         4.72010319245267   14.03394750964906    3.20695803307656
H         4.70637523755653   11.95274464528286    4.44610554246009
H         3.08046803488985   12.31416611729520    3.83804586378697
H         5.20077155213683    9.39181136720553    1.78179968179124
H         6.00077187978410   10.08949976384604    3.21684682125560
H         7.02584880502291   10.99920617206653    1.26630929529364
H         5.95738500116752   12.42011817954448   -0.36144484420291
H         5.23279217822866   10.79359811396428   -0.42492282334188
H         6.71364210212856   12.51340692441847    3.23141551675202
H         6.65360492556373   13.44409004376040    1.73211315076390
H         4.27098891141129    9.71448127597668    4.73242860035154
H         3.53909830006049    8.74516006131122    3.42100876102910
H         2.58074662085156    9.98396513847676    4.22436947177817

