71
CSD_code = VODYUJ | q = 0 | S = 0 | Stoichiometry = C33H32NO3PPd | MND = 4
Pd        5.21370488168066    3.33233461280071   10.37795820076048
N         6.56591336271406    3.83334326642909   11.75541992479950
C         6.97897644608539    2.86813951124626   12.62117114246943
O         7.94849658852337    3.08257683672424   13.34910320818736
C         6.07324169903911    1.71229027418913   12.58599409133621
C         6.20306484553435    0.62498440019528   13.44427930009813
H         7.04000441995475    0.59365716942859   14.12726034934869
C         5.26221309390505   -0.38564505867411   13.40263020209859
H         5.34979098760949   -1.23673760603583   14.06282368226429
C         4.20377171732178   -0.30610011835490   12.50874353463669
H         3.46999512796912   -1.10043259540846   12.48078933420630
C         4.07716971194149    0.77531248943414   11.64715093010452
H         3.24543270638625    0.81363320561020   10.95373698948313
C         5.00170461086954    1.81435657615338   11.67283042796773
C         2.14485823128891    2.77437282742851    7.36646996534410
H         2.38926574986272    2.24305405969122    6.44902881753147
H         1.48502137737570    3.60238968723442    7.11753825019732
H         1.63638019175767    2.09683343717738    8.04726963122719
O         3.68585374184694    2.80690273795297    9.15015009024859
C         3.41745160963313    3.29133393075864    8.01887813302982
C         4.14465397844443    4.23005899359286    7.27951368449407
H         3.74328065880003    4.51070716544085    6.31676338088118
C         5.36801918109409    4.79481319120951    7.65146332388695
O         5.97900020115410    4.59564975708372    8.73017741056705
C         6.02418297589543    5.72683570319713    6.64587209589247
H         5.32256820217350    6.49259581460871    6.32514548435098
H         6.33621630283336    5.16025322189901    5.77048329616633
H         6.89492387025382    6.19787175777880    7.09559824686024
P         7.33849841753998    5.24101597415678   11.96180788568222
C         6.32799369202015    6.35769752002858   10.95527756333160
C         4.94230726782217    6.16518496760311   10.97657155489097
H         4.49195651323120    5.44233283036687   11.66618970477147
C         4.13643639594157    6.92219608066979   10.14635637968197
H         3.06684920790853    6.76438701991935   10.14719489392541
C         4.68547794704561    7.88001064853217    9.29590416439212
C         6.05587532698445    8.09811132219128    9.32812042086114
H         6.49211716135563    8.85065155401831    8.68638455007188
C         6.87506373244342    7.34425375004307   10.15160902938398
H         7.94523941830190    7.50173892799887   10.14645096100716
C         3.79657480935532    8.65862081128914    8.37655943263018
H         3.12903594690216    9.30049555401849    8.95096342101986
H         3.17918414587156    7.98171829110950    7.78826229378179
H         4.37845291885333    9.28135669992959    7.70186867375439
C         9.02426754644465    5.19968347289593   11.32406471944449
C         9.13555071944857    4.92274238145972    9.96242905951610
H         8.23432468145995    4.81191655423622    9.37041105651828
C        10.38557918329115    4.77824476385250    9.39702091738888
H        10.47844411850645    4.56544606473138    8.34148952202769
C        11.53616291374889    4.88971258013509   10.17506709190994
C        11.40501929791377    5.13425594853008   11.53674223901048
H        12.29002315245960    5.19810458005003   12.15363030325127
C        10.15842660213239    5.28246654221088   12.11808907183778
H        10.06205283617155    5.44073884894613   13.18182803425394
C        12.88490833533069    4.73757644978628    9.54276246687506
H        12.93581352332043    3.80950643411652    8.97591741585065
H        13.67098892677358    4.73325875134522   10.29323347883182
H        13.07052637305486    5.55898552341792    8.85073701620569
C         7.22883590281456    5.91584173611187   13.63584375097278
C         7.97372481398171    7.03881602732402   13.97550881870362
H         8.65047844474815    7.47348119909891   13.25289888082995
C         7.84303420369710    7.59617869948547   15.23296667198204
H         8.43037183564631    8.46426686104787   15.49674426894327
C         6.96292539709690    7.05514228205988   16.16361815562957
C         6.20221422259522    5.94817601636310   15.80043220326877
H         5.50720738274526    5.52529922692874   16.51133857679948
C         6.32535377436856    5.38303189030270   14.54639649002201
H         5.73429847169725    4.52025582685369   14.27230885540570
C         6.84423074932464    7.63910096229622   17.53673290894994
H         5.81427539413851    7.60397864219493   17.88442416462842
H         7.19081426279200    8.66934883055290   17.55503886923612
H         7.45202756084276    7.06358570298505   18.23536093406940

