66
CSD_code = VOFCUR | q = 0 | S = 0 | Stoichiometry = C24H36NiO3P2 | MND = 4
Ni        2.63998702301950    3.96544153871072    0.20156993500838
P         2.75292592087668    1.83176857793616    0.45926886686495
O         4.01969914906383    1.58567880611148    1.47511220296919
O         1.51297135852480    3.96561827833398   -1.34427193852845
C         4.01063713121291    3.96553152498717    1.48345176144814
C         4.56742029543714    2.77017773330643    1.93739042855883
C         5.63688311251767    2.75904934913654    2.81905804799835
H         6.04686178013442    1.81875326499138    3.15279319420148
C         6.16199489497406    3.96561991794407    3.25295284119382
H         6.99395875256355    3.96564005556968    3.94021542385085
C         3.30647033096685    0.86507696276655   -1.01427592139415
H         3.71052051167208   -0.09554078087358   -0.67509772559659
C         4.41307612160033    1.69542304327089   -1.65989420179600
H         4.76950372796535    1.22918357289428   -2.57681098219134
H         5.25628765847299    1.81198518500485   -0.97949125589339
H         4.02113982947132    2.68676307238157   -1.90251801870196
C         2.14119018171068    0.66843775954704   -1.97423765850556
H         2.48251070929509    0.19144319680410   -2.89161015816752
H         1.71140609754022    1.63577567635562   -2.22663422458175
H         1.36143568376648    0.04922327681848   -1.53572627172312
C         1.44507741646824    0.82088369660302    1.30492685939783
H         0.54849661857771    0.88136278363157    0.67986814646060
C         1.16579065182210    1.49239800685147    2.64758629864210
H         0.30357161714918    1.04200497861142    3.13558607284808
H         0.96796476256795    2.55594803170912    2.50637716607920
H         2.02804865332986    1.39271674000582    3.30515997989992
C         1.87066096153578   -0.62962741993657    1.49092560491291
H         1.14916072570280   -1.14830018115310    2.12061610093990
H         2.84358925083577   -0.67389223995930    1.97650759190567
H         1.92917194379098   -1.15439098699548    0.54064504688530
C         0.20885610976093    3.96560919145448   -1.30996221319255
C        -0.54130690962542    3.96554928586783   -2.49964052501072
H        -0.01490149223740    3.96548371134693   -3.44351068899898
C        -1.91880150830838    3.96554661385453   -2.45801706171431
H        -2.47554188129361    3.96568899100493   -3.38535054334343
C        -2.59814633192390    3.96551152659765   -1.24935860551657
H        -3.67788293184040    3.96574225846925   -1.22972443821821
C        -1.87566420716536    3.96550851362048   -0.06680543037220
H        -2.39280907600010    3.96560389722534    0.88370715446924
C        -0.49906139171639    3.96551584289490   -0.09689095639563
H         0.09418265126005    3.96545310917208    0.81919048141173
P         2.75280849473863    6.09920718041730    0.45918077411609
O         4.01957166313201    6.34536977721942    1.47502099011174
C         4.56734526316949    5.16093251006130    1.93736371445988
C         5.63684607869707    5.17215648112560    2.81900596958177
H         6.04675870073655    6.11248695316174    3.15276048290542
C         3.30644846629218    7.06607422513315   -1.01423380776008
H         3.71051827425820    8.02668525669246   -0.67503157841386
C         4.41307490291698    6.23574162713638   -1.65983088288525
H         4.76947213830212    6.70198480609193   -2.57675431211091
H         5.25631319961883    6.11919810811077   -0.97945916476389
H         4.02116237736018    5.24439104757880   -1.90245145533630
C         2.14120375648550    7.26278161454329   -1.97421649595363
H         2.48260687140982    7.73981816909630   -2.89153609157236
H         1.71141528695073    6.29546044036717   -2.22668538245951
H         1.36144242578057    7.88199972976353   -1.53571979667698
C         1.44510705264030    7.11027102490619    1.30487489677727
H         0.54849988431024    7.04980335693523    0.67985229597803
C         1.16584094116371    6.43881353056506    2.64757216782078
H         0.30362131816767    6.88920822341657    3.13556850318447
H         0.96800662568116    5.37526248572848    2.50639458645715
H         2.02809303529899    6.53850235528201    3.30515497139922
C         1.87068840729992    8.56079042509151    1.49090692696295
H         1.14919334599513    9.07950188563308    2.12058032077093
H         2.84362464596535    8.60505563072722    1.97648373870491
H         1.92920094015189    9.08553679232633    0.54061824259362

