47
CSD_code = VOFGED | q = 0 | S = 0 | Stoichiometry = C16H22FeN2O2P2S2 | MND = 6
Fe        3.38478700992289    5.38895355007163    8.99491146940936
C         3.10732973791866    6.64487299272009   10.17727858505246
O         2.93800525670512    7.51110372567890   10.90493588022032
S         2.98330132423555    3.77642630512349   10.59981885829299
C         3.21117920266547    2.30711276581204    9.69353560429419
N         3.04982381387756    1.19026628828896   10.34379338229312
C         3.21384911147423    0.02018891082398    9.68282702996424
C         3.04649680738277   -1.19983980054766   10.35632152147944
H         2.78658066516724   -1.17779730205449   11.40325203356653
C         3.21559072241016   -2.37739139185205    9.67492647183199
H         3.08813434999150   -3.31977365700793   10.18761515704088
P         1.25055840519756    5.10017932623512    8.50567317750240
C         0.53075563265848    3.44160831730032    8.24718601972772
H        -0.52678000386688    3.56915444091978    8.01005085524454
H         0.63261544438296    2.84405607909532    9.15310641516101
H         1.03398594796712    2.94092224889620    7.41995703381210
C         0.72104983448006    5.93756633192554    6.97201484422422
H        -0.34239748345166    5.77215069816310    6.79743452998875
H         1.30013491523270    5.53373505254363    6.14095130812316
H         0.92028738158448    7.00520161523247    7.05797180881048
C         0.10323830919156    5.77896890898283    9.75191615227448
H         0.28233757553101    6.84786242205680    9.86231348314706
H         0.29696523909729    5.28493927847324   10.70450375631887
H        -0.92909179502263    5.60596609446489    9.44669831483412
C         3.66223862837514    6.64506966162909    7.81276719891934
O         3.83088168705696    7.51135164317208    7.08507514973970
S         3.78542743785769    3.77637140626685    7.38991525988523
C         3.55817115471246    2.30709974886440    8.29641174945159
N         3.71943640021437    1.19026449111990    7.64613094255159
C         3.55530260501861    0.02019248401522    8.30706044691147
C         3.72253087692732   -1.19981605667899    7.63350541092469
H         3.98240423606513   -1.17775267068456    6.58656326510359
C         3.55330395948783   -2.37737903998613    8.31484015656702
H         3.68060702866888   -3.31975033794238    7.80209453912434
P         5.51894963108319    5.10038941598758    9.48419725350135
C         6.23869959692867    3.44180972997857    9.74280595398642
H         7.29623953438663    3.56937399979538    9.97990740681526
H         6.13681001904825    2.84415182390111    8.83694936236957
H         5.73547855387308    2.94121772659711   10.57010543056727
C         6.04841461007871    5.93778317221577   11.01784790225489
H         7.11187276298518    5.77241561161536   11.19240835649166
H         5.46935291110325    5.53390857674789   11.84890958361730
H         5.84911436842901    7.00540962872715   10.93188399620189
C         6.66609701682982    5.77923770404409    8.23783212902642
H         6.48691445632177    6.84811764533843    8.12743598480931
H         6.47236201131123    5.28518419542540    7.28525546339480
H         7.69845310850428    5.60631623850427    8.54300336517496

