46
CSD_code = VOFKIK | q = 0 | S = 0 | Stoichiometry = C19H18MnN3O4S | MND = 6
Mn        5.49992855913555    4.19269874094807    1.38477229771990
S         5.55122118955797    5.09297701660616    5.84943797203084
O         7.43625378147108    4.02378294895334    1.46708992197609
O         3.82551469443515    2.69930165330656   -0.51948004949991
O         5.86564936545539    6.13636151465000    1.36449843661461
O         5.38260018972851    4.04817455155785   -0.15905190262990
C         8.18370572796922    3.01485480646341    1.73480781132070
C         9.58500936883762    3.21837463332066    1.83716328597433
C        10.44335727658640    2.18253153317712    2.08700818075061
C         9.96240126889634    0.87873491979752    2.25048179548283
C         8.61619465106995    0.64274642948308    2.16235016606671
C         7.69911348127209    1.68196946333527    1.91221238706923
C         6.31401557757089    1.36395660480541    1.84712846175199
C         3.99724101659658    1.62829636940642    1.65135786686322
C         3.13801808537220    2.39449139173660    0.58683028047223
C         2.48137430985856    3.64184255842977    1.24843901288349
C         3.02162295632377    5.81615093513583    1.90023186354253
C         3.77255218148689    6.99484216938483    2.16091403882907
C         3.09959487404820    8.11671190711228    2.68367604461747
C         3.75084325342386    9.29617769148840    2.92637521008226
C         5.11554582776624    9.39986496205054    2.63318672225301
C         5.80238208524506    8.33727881588483    2.11358044619989
C         5.17000278890312    7.09011241361288    1.86629388811500
C         5.52795906181309    4.67010061742086    4.33949409086471
C         5.66880833854125    4.25608486434002   -1.46863984898656
N         5.32407240680919    2.17768578155575    1.71729208026180
N         3.46484457900674    4.65302922162982    1.56214439391995
N         5.48145339141804    4.32628130455029    3.20443593169466
H         9.94385405356084    4.22799424689186    1.70867434641953
H        11.50455257056536    2.37141906052614    2.16003240944597
H        10.64945579754767    0.07035275313926    2.44644676664796
H         8.23411058045942   -0.36051985599504    2.29141258861346
H         6.08699556251694    0.29738229736437    1.94283380554018
H         4.04025391172088    0.56963799417719    1.37013502944386
H         3.51980931391212    1.71949900351472    2.63328061921770
H         2.29574888832026    1.71521077734765    0.33166627574582
H         1.95239182417396    3.33442295134694    2.15850750142593
H         1.75433172327052    4.04931677478031    0.53574181027135
H         1.93742642387231    5.93640105539004    1.99398860741902
H         2.04470079756221    8.02644143479732    2.90357583141313
H         3.22114311791984   10.14104467125453    3.33796122092829
H         5.63103495241767   10.33008810506277    2.82333007391224
H         6.85503171657250    8.40488745818001    1.88585475855498
H         5.19950524406407    5.19333225981912   -1.80107784820687
H         5.28527921759106    3.42841651726462   -2.07661896492809
H         6.76209401535050    4.33725667499319   -1.56887561811171

