93
CSD_code = VOFLEK | q = 0 | S = 0 | Stoichiometry = C30H52BFeN7O2 | MND = 5
Fe        4.04006634777626    4.67513564279904   16.12441912871526
O         3.13635150218259    4.71896001373071   17.90034100117659
O         4.67770362415121    3.38847373378139   17.53808154128673
N         5.35854694247259    4.58774127768536   14.57856790801126
N         4.86573944320472    4.76991182945094   13.34578425593344
N         3.15428812277412    6.17089245239331   15.10665133492747
N         2.70721563503527    5.84862095951928   13.88474472074626
N         2.65885172180359    3.22217134987362   15.04656570879806
N         2.84735941582419    3.36872015509800   13.71843601811931
N         3.92149541879991    3.87791439609153   18.43403566384483
C         7.22060842582377    5.38466974595557   16.80646800109642
H         7.87145835947757    5.23547224620020   17.66483433468485
H         7.29816542190245    6.42150677366797   16.48467615216084
H         6.19254768082336    5.18846387696018   17.11946693559456
C         7.48959650937377    2.97893805170106   16.13124674244831
H         8.15547160678252    2.79321547202636   16.97078168886550
H         6.47085886605461    2.76707760039037   16.43868264419110
H         7.75618890294152    2.30439723086687   15.32055081914388
C         9.06317788920841    4.71991426833234   15.27127864562411
H         9.71016023102254    4.59913673236962   16.13733023633066
H         9.39554003486119    4.02770347026973   14.50199245248149
H         9.17342594785938    5.73674374794119   14.90079302688640
C         7.61110391773777    4.43583071482452   15.67004200552382
C         6.69156460410839    4.64058560193674   14.49822350601902
C         7.05231631641687    4.87118747309131   13.16826703591621
H         8.04109949856321    4.96570730264132   12.77314480624320
C         5.86485395759398    4.94876672075890   12.46259146750244
C         5.65418073962626    5.24833775286703   11.01193892442567
H         4.80803946584040    4.65690691201774   10.65159122837828
C         5.31110905101266    6.73350315952613   10.84884215433136
H         5.12780997931868    6.96580610048834    9.80222079029684
H         4.42314596856261    6.98255055849267   11.42474147689887
H         6.13554770109303    7.34977005807714   11.20119554932513
C         6.88467047796216    4.88566781707631   10.18267936956877
H         6.67317713586743    5.02385722079467    9.12486118871969
H         7.72740982845659    5.51965308142248   10.44613496140679
H         7.16422820414747    3.84769987124933   10.34628191973259
C         4.29942824214143    7.74856224563736   17.20572919452790
H         4.53713342854408    8.31337902753180   18.10432148124545
H         4.39032967148848    6.68587949043624   17.43958238237089
H         5.01933255762945    8.00341177866039   16.43021965086136
C         1.86547344892456    7.63812095096314   17.81132977911422
H         2.04460592407546    8.18594160279277   18.73390285608852
H         0.85151409848383    7.84369229095562   17.47631210982316
H         1.95600427033934    6.57497725064399   18.00981960696726
C         2.75988345968221    9.57242377010812   16.49800797499335
H         3.06555895725991   10.11328365357389   17.39098613219472
H         3.39661753030093    9.88144360529260   15.67172539940769
H         1.73547874911585    9.85269753318163   16.26987221831283
C         2.87619944161409    8.06140330917389   16.73941554774558
C         2.58001502603381    7.32047487089380   15.46476656167793
C         1.71064414254176    7.72354039716063   14.44677703549248
H         1.09529019191976    8.59784734941959   14.43358290206552
C         1.81553749845934    6.76264745561522   13.45803851944004
C         1.07030551559224    6.65039373799742   12.16608125489439
H         1.77752868177631    6.37475790225865   11.37695808997358
C         0.01994120415041    5.54030349348781   12.28348506950223
H        -0.51474547955853    5.42603790056099   11.34316015990572
H         0.49252113846955    4.59515481868467   12.53662941755320
H        -0.69732977608109    5.78650169182799   13.06323777143843
C         0.41144731616028    7.97407523277828   11.78377425191666
H        -0.05949173008841    7.88556724276510   10.80746121952015
H        -0.35371412966291    8.24343228012650   12.50732688758122
H         1.14828970679113    8.77258551324643   11.74042986423240
C         2.66148024961346    0.91638659988400   17.31805922095737
H         3.01889918805111    0.02914212916852   16.79846577348305
H         3.49084942146109    1.60840522734860   17.40022789600322
H         2.34124695387343    0.62855462317456   18.31680826404576
C         0.82979949831274    2.67547150167170   17.32852059986655
H         0.55647032448433    2.33589470245867   18.32507024466404
H         1.48985709677631    3.53041909689147   17.41662173071682
H        -0.07127539874179    3.00217585883155   16.81281811235091
C         0.43979096208945    0.45167366607668   16.31129498547767
H         0.87315179729047   -0.42583294987079   15.83797301777430
H         0.02491643142690    0.14558107145758   17.26937404006975
H        -0.37202699594047    0.82199914975440   15.68909584337394
C         1.49576343762051    1.54176016808524   16.54315146293051
C         1.99994625852779    2.07288949735168   15.22740302385820
C         1.80272222341189    1.45651189752088   13.98721711285255
H         1.31950509326335    0.52221756376110   13.79914618169125
C         2.35350974894225    2.30613798449215   13.05099870905575
C         2.48578650510696    2.10536183465876   11.57411902026632
H         2.29897357031231    3.05691188396209   11.06797233938875
C         3.91696956114556    1.65695829515622   11.25746698605302
H         4.05532927502901    1.55832130127359   10.18288992582864
H         4.63406374864348    2.37794749786633   11.64092105660382
H         4.11633558294436    0.69415123307903   11.72280392267847
C         1.47701471511202    1.08231164254494   11.05545004885561
H         1.53691822978369    1.01918046255789    9.97115402161915
H         1.68361996143874    0.09701966049930   11.46507027201467
H         0.46474490787774    1.36908088368087   11.32978684745395
B         3.35267676180792    4.68505353516927   13.12622121846253
H         3.09708690777252    4.75816621333320   11.97837943738622

