78
CSD_code = VOFMEL | q = 0 | S = 0 | Stoichiometry = C32H39BrMnN2O2P | MND = 6
Br        4.73691339732833    3.21579553356182    3.57889627133452
Mn        4.64338974803961    5.58877295853787    4.19141236310681
P         6.86107069604928    5.44269384445019    4.02732608001556
O         4.49903502934047    8.47229313523611    4.57208884745805
O         3.86958277580368    6.34432949794633    1.47545468867883
N         5.06003904543312    5.08192520351471    6.12361660809986
N         2.63486966207932    5.22005166607067    5.08860464538247
H         2.71688038565492    4.19435330541211    5.08575987825492
C         4.55763972441290    7.31501545227815    4.47589183937679
C         4.19072932785691    6.01256432599622    2.53835257180390
C         7.24325303775641    4.33411764593886    5.46239580015927
H         7.06874677540446    3.30806753489140    5.11176988244230
H         8.27022155887196    4.41819771250297    5.82163392240806
C         6.25194617271969    4.64238004303452    6.53473953648914
C         6.53935050915690    4.44098683597083    7.87667885791125
H         7.52783889827314    4.10354502067177    8.13673556358631
C         5.57251828457205    4.67531155654891    8.84549220666251
C         4.31470537998977    5.06256940992384    8.38339106548287
H         3.49582112710751    5.22781692505592    9.06573360863436
C         4.09615658627475    5.24988266413317    7.03206601602900
C         2.75287129371340    5.65285551693587    6.48517457635169
H         1.95093663521293    5.22444129768754    7.10773815516628
H         2.66513819678784    6.74571102886883    6.52562526107903
C         1.30890003921470    5.51129086782148    4.51462308468033
H         0.53949100772702    5.26324061760893    5.26755165793471
C         1.17956113082017    6.98571461007347    4.14662211837664
H         1.25465265929224    7.62769462954132    5.02093741781009
H         0.21639470603260    7.16458627720371    3.67668542512264
H         1.96714910363640    7.25888582918950    3.44519438514269
C         1.09634377428340    4.62881018897455    3.28918549616340
H         1.86842546866534    4.82913661543737    2.54849319974933
H         0.12742975264317    4.83132884512792    2.84174255101290
H         1.14071850858560    3.57350473657969    3.55283739440750
C         5.82345257044265    4.51383886872804   10.33099936422851
C         5.55933809338749    5.85946853360678   11.02104973790561
H         6.21850908470382    6.62390884061278   10.61562312805175
H         5.74645967251943    5.77225265185425   12.08884531836618
H         4.53146267399818    6.18392605595609   10.88175937294323
C         7.26193527568887    4.08895265355382   10.63392079390219
H         7.48426717198038    3.11834703892806   10.19613623393571
H         7.39643795054357    4.00923311464452   11.71037716899602
H         7.97194171192407    4.82183020677097   10.25733072894197
C         4.87119601507777    3.44511667611617   10.88605075549894
H         3.83114322177530    3.73498181325698   10.76242482594993
H         5.05808940439989    3.29745598545019   11.94713660987841
H         5.02610945348147    2.49759219551158   10.37385451234964
C         8.05178437766841    6.88046573994538    4.32518134420019
H         7.50940675587280    7.78286198243869    4.01467090611104
C         9.25111306366931    6.64606450638303    3.39640346502370
H         9.09821778027980    7.20131894798465    2.46933136157202
H        10.17560094658886    7.01009544321084    3.84710748130213
C         9.34433068771265    5.15867250492673    3.06157651415242
H         9.73711873075611    4.60201500596822    3.91577844458441
H        10.01287435727267    4.99188076280041    2.21473471192648
C         7.92783673499274    4.66169287021747    2.73309441608840
H         7.86520426570937    3.57151114969011    2.83714379656363
C         7.49511841238672    5.03953043112112    1.34375666023895
C         6.92497980300101    6.27763059420935    1.08095953664904
H         6.74293029958869    6.96972592529175    1.89837965297494
C         6.55605415421066    6.62549040435233   -0.20627443151981
H         6.10262573594734    7.58750934642939   -0.39174401588931
C         6.75366444266696    5.73548007329806   -1.24708801570050
H         6.45898558917427    6.00228451091611   -2.25111673029903
C         7.31653902696421    4.49602646402730   -0.99423313214730
H         7.46111941842950    3.79195890549243   -1.80068272606969
C         7.68548868904136    4.15042544111779    0.29288903596972
H         8.11420980615990    3.17730028040682    0.48763879358834
C         8.32541887588156    7.01087384343876    5.79333050530962
C         7.36654991249033    7.62852603696518    6.59354908078326
H         6.48307142746201    8.04449645006652    6.13151998666726
C         7.53362490207696    7.72784323176182    7.96154337848245
H         6.77573494460932    8.21516597225118    8.55826747143871
C         8.67005032069227    7.21261089046223    8.56194495455657
H         8.80997621557260    7.29628913058489    9.63013162463279
C         9.63410433396502    6.60211091993055    7.77938612957365
H        10.52746142850697    6.20088765570566    8.23688646633280
C         9.46311990044072    6.49877945046961    6.40933310807560
H        10.23362196152975    6.01899916041571    5.82314069756890

