44
CSD_code = VOFNIN | q = 1 | S = 0 | Stoichiometry = C11H23CoN5O4(1+) | MND = 6
Co        1.61633152301591    1.72115666688236    4.85835498014020
O         3.09400316216429    1.91523712716521    5.97056310930976
O         4.65358010082664    3.43222597890309    6.46250365372788
O         2.71321096305671    2.00211304874045    3.38092336489316
O         4.05503280826528    3.58182465736288    2.55122887827736
N         0.06483729909014    1.50505290797909    3.54852991466377
N         1.97138428910010   -0.20804180429278    4.83587215510277
N         1.57576291844954    3.70043752838178    4.95213591153763
N         0.49630860632471    1.34039217119702    6.47973994284390
N         3.41488877624972    5.26996275470186    4.69431577397494
C         0.35572945856667    0.64219131188176    2.37956562145710
C         0.64219826821864   -0.79278061915202    2.79941123686877
C         1.96525632118369   -0.91983081485182    3.54979826582341
C         1.20713058838287   -0.88911055354490    5.89198910419419
C         1.04022774369460    0.09245349279188    7.04290762924756
C         3.34557125987176    3.12197614093783    3.40500568147086
C         3.05294189741524    3.90105684897650    4.71849449433254
C         3.71208327465467    3.03842535201350    5.82795855444378
C         1.14421983524423    4.41448088021231    6.17239549452005
C        -0.02306421480148    3.73020916363852    6.87912494852174
C         0.39258304364926    2.39776801444540    7.49677665919901
H        -0.14735528055130    2.42849619550235    3.16983415968157
H        -0.80702121233916    1.16586643235307    3.95897374567080
H         2.94610124989020   -0.17798522399216    5.14650901589828
H         1.10084354279263    4.14601208772320    4.16288543859091
H        -0.46216919161870    1.13803605423524    6.18645016605292
H         4.10002550635865    5.47308601160507    5.41759867788248
H         3.82781133439073    5.50833335883512    3.79520351247423
H         1.22898323674130    1.05243584495324    1.87144546261444
H        -0.49513680153645    0.65721474919723    1.69096117414785
H        -0.18850367963703   -1.18539629387601    3.38942815081613
H         0.71251595538278   -1.40181494828973    1.89855819272552
H         2.75454997035408   -0.48828353462666    2.93266491234270
H         2.18898964370343   -1.97861595689666    3.71892279626726
H         1.71933201058264   -1.79568931416491    6.22840068572864
H         0.22838905643279   -1.17604878801323    5.49914058049328
H         2.01544008462445    0.31946385566698    7.47876587843366
H         0.38698214524264   -0.31359286066386    7.82215067612325
H         1.99050503440987    4.46006893529562    6.86036347053401
H         0.87701728628574    5.44158892866587    5.91432595326270
H        -0.35943238859528    4.39112250495663    7.67769458979791
H        -0.86127474794028    3.58771732867908    6.19236781793823
H        -0.33202678074635    2.09896546141345    8.26265486515738
H         1.36811610314994    2.50711891707150    7.97410470281530

