57
CSD_code = VOFNAI | q = 0 | S = 0 | Stoichiometry = C23H27CrN3O3 | MND = 6
Cr       -1.36106446003200    2.87148762647415    6.79792135018972
C        -2.19941385612250    1.45721497211284    7.54719713110299
O        -2.75204425632329    0.60321544390933    8.12524094811570
C        -2.56042169979497    3.85568950338740    7.72201903549311
O        -3.32431597967625    4.43510726515297    8.39664187477722
C        -0.42353957025546    2.86833312891392    8.34274812331074
O         0.08225173102020    2.85610203108037    9.39758018304726
C         0.98592381799562    1.91256139895550    3.25446626612713
H         2.01229155410318    1.92115441810522    3.61772853856328
H         0.94994483882748    2.47758231971854    2.32575910060828
H         0.70940543931589    0.88235462382492    3.03618573789065
C         0.03893642009611    2.51422983004421    4.30163986761790
N         0.06564423020180    1.78368356644680    5.56159719512280
H         0.99796398227226    1.78112245886635    5.96837609876999
H        -0.20770809714207    0.81258252609043    5.43165084391543
C        -1.41142605749119    2.44847335822272    3.79999080864167
H        -1.50767593964473    2.99696992386457    2.85006447329363
H        -1.63771806104468    1.39883046834174    3.59292346561698
N        -2.34354873922899    2.94720138812315    4.80786655511280
C        -3.59380457488773    2.16623211668758    4.82327219140202
H        -4.21144174080931    2.56484215954389    5.63011547832166
H        -3.33794850218686    1.13903157933277    5.09218385269031
C        -4.35601767564231    2.17941098586802    3.51857822337140
C        -4.17871680818931    1.16570708348397    2.58316209516545
H        -3.52788975853919    0.33215832270276    2.80917303463595
C        -4.84777165699911    1.18966749678212    1.37207783393702
H        -4.69925376483033    0.39096962462382    0.66028044299529
C        -5.71116010614182    2.23030399627854    1.07727756195598
H        -6.23360577498834    2.25127935560743    0.13266575285166
C        -5.91510508350002    3.23376278150469    2.00901557163205
H        -6.60318013749191    4.03823348365105    1.79506609033407
C        -5.24638819305339    3.20550048552692    3.22000709341829
H        -5.43420752698261    3.98105388769085    3.94773753741125
C        -2.61761187833673    4.36559752712834    4.61830186175698
H        -3.51860594374940    4.59907760090861    5.18620336151569
H        -2.81670759960796    4.58931284141708    3.55672909477655
C        -1.48490279557570    5.27191130430774    5.14442883154643
H        -1.14790488929173    5.95464282939688    4.34618454941647
H        -1.89143831022288    5.87699132546396    5.95509891346400
N        -0.36482989989942    4.51893635199409    5.69254165222039
C         0.42184603339328    5.35498415864943    6.61711549640565
H         1.19885612600007    4.72460001846670    7.05508261384431
H        -0.24733665130339    5.65075362381882    7.42722242475263
C         1.04561602247273    6.57643063226639    5.98225584823347
C         0.34559188153146    7.77676769933882    5.91674215236170
H        -0.63617132907289    7.84801058688143    6.36128793303664
C         0.90010409693672    8.88923336261671    5.30931894106210
H         0.34225816178133    9.81311426491836    5.27032802655955
C         2.16951430333403    8.82213759940938    4.76065363979545
H         2.60372850650415    9.68999637223687    4.28736517018090
C         2.88608549891903    7.64079032881263    4.83924813460236
H         3.88510223844242    7.58545653498527    4.43228209587457
C         2.32843072293962    6.52980165174034    5.44766128085198
H         2.91322011156012    5.62353807507786    5.52436085265979
C         0.46417464533564    3.95357413603109    4.63129316716238
H         1.50306043558541    3.91579032750444    4.97051027775765
H         0.43892651948684    4.57280123570442    3.72137332272443

