71
CSD_code = VOFPIQ | q = 0 | S = 0 | Stoichiometry = C24H36N10Ni | MND = 4
Ni        6.10112272876760    0.00002160274715    0.00000261390453
N         5.79169048673704    0.31494985298682    1.86860029436934
N         6.54099946426335    2.20333172395618    3.05180519737076
N         4.90832354153443    2.47156931516677    1.48776403395118
N         3.07653747161033    2.78614707401578    0.14872119314788
N         4.55274083346602    1.03755117471437   -0.31487014864983
H         3.93153903084044    0.84366757124291   -1.09407913891798
C         5.60327896561619   -0.60320993636420    2.87227483154392
C         5.75204314577157   -1.97326253591332    2.60646539537459
H         6.00001369957229   -2.27741411491274    1.59674118238884
C         5.55221128835564   -2.91688241392172    3.58977551735813
H         5.68253521603706   -3.96477667182213    3.35606259179316
C         5.17439066559986   -2.53657859668552    4.86887909190752
H         5.02198389403741   -3.27706652698317    5.63996708812020
C         4.96000547129928   -1.19394862803591    5.13103028948269
H         4.62292626172544   -0.88396177960256    6.11113032259565
C         5.15985089357901   -0.23928224251105    4.15474321055106
H         4.94199401159343    0.79698420760641    4.37073112020836
C         5.74057636803925    1.65134240658912    2.10337934683615
C         6.45125123954484    3.60049294380577    3.38798828347595
H         7.34745284640436    4.13595614954324    3.06085885314526
H         6.34846778280987    3.71666509790814    4.47034495764774
H         5.58497941658172    4.01878315034576    2.88431837817233
C         7.62969694313260    1.48343331029079    3.65612618747345
H         7.39440565718968    1.18065630325707    4.68206819569687
H         8.51628853204335    2.12205074649607    3.67244173071896
H         7.84775777199290    0.58903789319525    3.07577597366143
C         4.17824514588114    2.04045247705033    0.44349132181176
C         2.53717421628269    3.72410947413408    1.10013676846491
H         3.22747519141292    3.79126067367108    1.93583604481517
H         1.55931237567294    3.39146120052889    1.46307501905310
H         2.42808332346693    4.70997525063844    0.64105028272557
C         2.29353504271166    2.54083462832663   -1.03774435355011
H         2.93527810844693    2.49350526318635   -1.92116227803872
H         1.60070179329008    3.36981382798138   -1.17010064735672
H         1.71011698201366    1.61438905333433   -0.96700454419676
N         6.41051901887058   -0.31495512946228   -1.86859667374399
N         5.66119352251348   -2.20342479943752   -3.05165512720119
N         7.29397326217022   -2.47152935043550   -1.48770080308720
N         9.12583929891134   -2.78596618827091   -0.14873211845843
N         7.64953750667271   -1.03746044244593    0.31488895653488
H         8.27074977029215   -0.84352646124335    1.09407709390334
C         6.59884107619560    0.60314982796130   -2.87233839325745
C         6.45004932124694    1.97321484263591   -2.60660631136755
H         6.20214913030531    2.27742364176526   -1.59688277613216
C         6.64978121170780    2.91677958013707   -3.58998997414335
H         6.51945680758680    3.96468540414948   -3.35632837173821
C         7.02753742918690    2.53640916755922   -4.86909275159443
H         7.17986804673808    3.27685312465493   -5.64023799233185
C         7.24195510028728    1.19377079056007   -5.13117094195732
H         7.57896662263905    0.88373073128273   -6.11127808299745
C         7.04220016639482    0.23915830857834   -4.15481236625970
H         7.26006790508362   -0.79711605136360   -4.37075433418019
C         6.46165550304337   -1.65136070212388   -2.10330586017509
C         5.75096302044104   -3.60060229718471   -3.38776442395342
H         4.85480159685458   -4.13607468337479   -3.06054228657054
H         5.85367434569185   -3.71683079553317   -4.47012128506264
H         6.61728338411536   -4.01883472213310   -2.88413215392519
C         4.57243199549993   -1.48359301794766   -3.65594082295283
H         4.80765543066735   -1.18083467527971   -4.68190402768348
H         3.68586825283385   -2.12225015209743   -3.67219011595459
H         4.35436108036142   -0.58919082024852   -3.07560380127556
C         8.02407317012225   -2.04034652221856   -0.44347191241795
C         9.66522266199354   -3.72390783903968   -1.10015486599349
H         8.97489707091818   -3.79110743357721   -1.93582482729168
H        10.64305037641373   -3.39120916521886   -1.46312609768803
H         9.77438447462514   -4.70975933018616   -0.64105849105164
C         9.90888879789697   -2.54055709447595    1.03768297277929
H         9.26719644242096   -2.49328571961463    1.92114129334603
H        10.60181792630226   -3.36946026225079    1.17000542105757
H        10.49220346567330   -1.61405069007817    0.96689804576684

