77
CSD_code = VOFQAI | q = 0 | S = 0 | Stoichiometry = C34H26Cl2F10N2O2Ti | MND = 6
Ti        5.85210882487421    6.27471471003714    8.66506868418703
Cl        4.68525243749296    6.65987017031696   10.53685382769625
Cl        7.80449565880576    5.92735737434652    9.70449880029050
F         9.56014167099612    4.53067626132200    6.76279111259645
F         9.57143285198630    1.94516423839242    5.96585309649367
F         7.25465537342788    0.72303026846845    5.21126561816992
F         4.91044213093174    2.13329680260691    5.23125793371015
F         4.91466785094427    4.75745889748402    5.98232176413042
F         1.67766543406801    7.99344022596617    8.84594593424542
F         1.24529500235325   10.55801499116806    8.09981869282820
F         2.85706001811489   11.74855460608774    6.25211992396775
F         4.90531668649990   10.32788430836910    5.12483123715604
F         5.30201029091719    7.72351875270726    5.84057065352587
O         6.22082065833925    7.95795796536743    8.39102855695306
O         5.40668764004743    4.58779900361804    8.65420349916952
N         7.13814710549826    5.99618325715411    6.87476770707228
N         3.83813939498625    6.51851831723857    7.75894856312519
C         7.21816733593005    8.70144485825551    8.02832407378628
C         7.45695190886811    9.98744507343894    8.59533910710883
C         8.46866394412599   10.75302147091527    8.05409124443689
C         9.27951590971163   10.30872738378513    7.00475902147745
C         9.11751493755537    9.04762813866411    6.50673089433890
C         8.10064819945437    8.21234627682685    7.01285161810593
C         8.00135100994216    6.89402048006570    6.50750623123430
C         7.22689720448600    4.70710079307738    6.39604674407377
C         8.41713321671738    3.96211833679200    6.36808462117796
C         8.42775864924405    2.62882631190067    5.97478132775938
C         7.24582106242216    2.00290347790412    5.58623632554377
C         6.05141330482153    2.72155931316567    5.59754792866018
C         6.05911611481205    4.04882174665251    5.99199157213276
C         6.67371044418339   10.43496495633219    9.82408880023025
C         7.04176709362086   11.85656349270615   10.26310724718524
C         7.02201058086696    9.47136595483311   10.96916037691735
C         5.16204260393204   10.40371473989129    9.56020874447561
C         4.36698087261693    3.84261088843663    8.86150631291637
C         4.45380093458758    2.57324768666685    9.50449475785809
C         3.31197291153594    1.80162338548461    9.56474477163490
C         2.08080269105566    2.22497274584694    9.05390947408575
C         1.96243897905355    3.47183380463254    8.50987464518331
C         3.09052320503085    4.31226810832140    8.41518877193769
C         2.91360479071826    5.61715579320091    7.89644257789265
C         3.51084921989231    7.79603620245328    7.35921184016639
C         2.46200972275409    8.54599297190794    7.91589483340231
C         2.24379947603757    9.86890216249139    7.54884152860304
C         3.06440944995580   10.47867186046762    6.60306583717306
C         4.10857095116236    9.75469287746861    6.02964256071429
C         4.31162873119648    8.43796330464034    6.40687835436584
C         5.75100454943793    2.15162452432772   10.18504134137086
C         6.92604420173222    2.16570290977066    9.19778922268626
C         6.01768401978928    3.14639890034920   11.32538648965127
C         5.66251870387397    0.74426934197533   10.78562398413542
H         8.66190748906488   11.73717291469464    8.44710177272684
H        10.04708742672149   10.95942260219250    6.61628480842616
H         9.76621213911165    8.66891294758994    5.73121571457665
H         8.72074795600054    6.64223622350396    5.72264325583135
H         8.09035427400666   11.92665942092650   10.54107521967066
H         6.82520291109717   12.58042158855804    9.48039953799892
H         6.45070300828874   12.12059416411401   11.13686841893541
H         6.73808370963165    8.44686307481985   10.72649632768857
H         8.09160877474473    9.49314790529871   11.16945077424479
H         6.49131169697379    9.76283624579522   11.87233169237199
H         4.63406447476262   10.81490896302040   10.41730345582585
H         4.91907783346064   11.00386061572138    8.68459064958718
H         4.81183710899011    9.38392312442701    9.41081181673748
H         3.34863941038194    0.82934876875181   10.02693782959869
H         1.22614025820856    1.57041224395851    9.12077802593195
H         1.00947399296839    3.83559668578946    8.15603996175995
H         1.89558686869729    5.85426295481657    7.57342742513430
H         7.81552194421306    1.77323242631468    9.68486788678838
H         6.70147870653696    1.54147336771506    8.33419452412787
H         7.14698074316032    3.17888324033039    8.86667938849011
H         6.93355305369702    2.87620506369109   11.84549171452096
H         6.13150671076014    4.16284536840146   10.94731176584777
H         5.19459995327792    3.13487224708295   12.03742891093893
H         4.89527051913996    0.68854807662650   11.55373598320546
H         5.46216977865756   -0.00086729534318   10.01865030002583
H         6.61391329603554    0.49854663690172   11.25154405128476

