41
CSD_code = VOFRIR | q = 0 | S = 0 | Stoichiometry = C13H24OP2Pd | MND = 4
Pd        2.68207339464045    3.13589508666895    0.56276969665881
C         3.64204015709023    1.80974807711012    1.81070567723260
P         1.68064165620985    4.29091774387793    2.19329574236015
C        -0.09125438210235    3.87773165432587    2.41751305818279
C         2.24399418776126    4.46540288850762    3.92665511072475
C         1.60307791214683    6.06595077095329    1.66330207362399
C         1.14805829735012    6.18848981879925    0.21266699517127
P         2.00470690759805    4.91890564256914   -0.84365325313655
C         3.64843380891434    5.69786287592886   -1.09107585164400
C         1.22650817958500    5.23163022314491   -2.47705275135727
O         3.55367596217327    2.24437444333640   -1.02514350428672
C         2.72330670865256    1.80813247041539   -3.18203686463075
C         1.67046202998621    1.48722393532010   -4.00944485027551
C         0.40519201730944    1.25048434635119   -3.49261676443363
C         0.21537731240748    1.31462014651426   -2.12207074974445
C         1.25869076957694    1.63627854578205   -1.27576512718780
C         2.55316141826292    1.90921312848311   -1.78423570609253
H         2.92473977087281    1.26615167179435    2.44107168031546
H         4.35553475726061    2.33431922355711    2.46090446034534
H         4.18678973981836    1.08958966685675    1.19336341580075
H        -0.15938445009751    2.90389553415028    2.90174626172633
H        -0.56834370907898    3.80852403224963    1.43957445762260
H        -0.59677386982856    4.62561439226606    3.02803237963886
H         2.21831740596788    3.48717592326975    4.40464723621992
H         1.60423692031280    5.15742644306356    4.47368056119609
H         3.27114545067926    4.82715213100216    3.93303642246576
H         2.61821576515849    6.46312193995720    1.77054060316731
H         0.94582178202969    6.62784560901088    2.33573516145082
H         0.07383250807934    5.99312828574956    0.13995474905451
H         1.33498299894925    7.19463421715772   -0.17548104011720
H         4.17740347303610    5.10809338900622   -1.84087754343065
H         4.21274248598750    5.63228327045991   -0.15524168200994
H         3.56723764078062    6.73409396392643   -1.42103227573052
H         1.71950720862968    4.60028748682558   -3.21559512298679
H         1.32321590751663    6.27972862291803   -2.75852449269325
H         0.17517365582037    4.95162878012345   -2.43890792599836
H         3.70919593060329    1.99278675189199   -3.58587817137317
H         1.83385400700563    1.42481867787548   -5.07732714570670
H        -0.41756979363730    1.00669235767710   -4.14847843046903
H        -0.76278874604882    1.10771345319686   -1.70623919083008
H         1.10806682260126    1.60763237794195   -0.17761729886377

