51
CSD_code = VOFSAL | q = 0 | S = 0 | Stoichiometry = C20H24Cl2F2N2Pd | MND = 4
Pd        9.88919010453508   -0.63677204999319    7.45402261144865
Cl        9.83030324967798   -2.04101060456732    5.70411044109235
Cl       12.11809650956162   -0.61951454396073    7.62879200174490
F         5.96667658019691   -1.57322016152779   10.43129383133098
F         8.73302895338122    1.48328548623297   12.62503014722657
N         7.77574092786431   -0.48843774968043    7.48046327220310
H         7.52475368273789   -0.28365299427169    6.51085083841361
N         9.80901137555068    0.86356561711439    8.89462399612467
H        10.64369542815488    1.41989621815245    8.69073479761462
C         7.81079979009523   -2.28086904167696    9.12786876903893
C         7.20351257735716   -2.12948003662005   10.36807571432857
C         7.81093909817505   -2.51190463223245   11.55068935900970
H         7.29297831621314   -2.36411637639864   12.48480964278700
C         9.07535371706863   -3.07021952842069   11.49752715107606
H         9.56598553798359   -3.36629613065370   12.41161188628623
C         9.69859639479023   -3.26398883055006   10.27376921455524
H        10.67275287365873   -3.72612346722143   10.23148801074767
C         9.07526301965506   -2.87673632452044    9.09613579925084
H         9.54373640912379   -3.10445592508581    8.13710703500015
C         7.16497448832669   -1.77323361642013    7.86135607890068
H         7.36347521155990   -2.47890295571942    7.04890467695969
H         6.08135342672319   -1.66847509707729    8.00088492670877
C         7.40572915677248    0.64521264542623    8.34706144014027
H         7.15245713433809    0.24832298501186    9.33385157641697
C         6.19720126591468    1.41150322913721    7.80294642072490
H         6.43423190937649    1.79877507066502    6.80758947946737
H         5.34532458564673    0.73483024807050    7.70916051161203
C         5.83442530481731    2.57071887407899    8.72764076628035
H         4.98432405710287    3.11533203897114    8.31487957745236
H         5.53864594111695    2.17612550171649    9.70178923237056
C         7.02207984035070    3.51277455279461    8.90024490784549
H         6.75663639617437    4.32221859471086    9.58133791238342
H         7.28027586908637    3.95793695794685    7.93667113741815
C         8.22472804448085    2.75230152822831    9.45381170578519
H         9.07636403863045    3.42603787144804    9.57436400528634
H         7.96366627317734    2.35283358117032   10.43361689326502
C         8.60005995320581    1.60857535410587    8.50615013575132
H         8.81745429969333    2.03763466279059    7.51252130860315
C         9.92656464613501    0.38719726022040   10.27963219001585
H        10.54515657755102   -0.52173005927377   10.25376452386476
H         8.94252720218845    0.12013193530014   10.66712160662247
C        10.60485979791179    1.38230887001321   11.18688107876167
C         9.99095029523756    1.88996013385099   12.32272095113034
C        10.61038910038569    2.79919621039051   13.15898511690550
H        10.08744086725149    3.16214586585329   14.02940526136100
C        11.89337314549456    3.21727877175380   12.85417666815845
H        12.39110056258849    3.92638952015129   13.49694625108071
C        12.53766498048871    2.71877005218431   11.73299508107201
H        13.54280249381580    3.03558605944149   11.50279394211799
C        11.90095760364339    1.80684211605110   10.91117390650990
H        12.41489098503172    1.39615231288853   10.05291620974308

