50
CSD_code = VOFSIS | q = 0 | S = 0 | Stoichiometry = C26H17O5PW | MND = 6
P        -0.04064360565587    2.93210934289558    2.37217685140302
W        -0.24035763110793    0.65290929907023    3.28746438115925
C         0.92725808632013    3.17693841498917    0.85041324543909
C        -0.09170958255533    3.72233001356098    0.13352700306249
C        -1.22701318998773    3.69334138802893    1.13681430554967
C         0.38388964913878    4.34730253514002    3.43687547002053
C         0.24357595619305    4.21292146327382    4.81333105759314
C         0.55456290927633    5.27023361300817    5.65019912238610
C         1.01102856238154    6.46372676473096    5.11672266166619
C         1.15411863289742    6.60130117212521    3.74441618146479
C         0.84219403999133    5.54958033216958    2.90418714129207
C         2.27261822618310    2.70575733681726    0.61790139138085
C         3.09970585274942    2.54414573611850    1.73121815835113
C         4.37358133664859    2.03184636106158    1.59312989421198
C         4.83372845348719    1.65680287178489    0.34058185457442
C         4.01333316856219    1.79460888669478   -0.76807623562676
C         2.74024792197227    2.31467266493756   -0.63725182086650
C        -0.16932185295264    4.27873785161113   -1.20113781365632
C         0.95676733086457    4.83629545631186   -1.81346923367569
C         0.86615958205666    5.38858249523583   -3.07553949956339
C        -0.34508222186062    5.39607996255039   -3.74975339772956
C        -1.47119348271362    4.85945010850561   -3.14700799129066
C        -1.38898697968552    4.31330765705933   -1.88085209428574
C         1.23953989834627    1.01447175796773    4.58228288326731
C        -1.64659942152615    1.23754860247304    4.58402450396870
C        -1.66504014079643    0.28731723666714    1.93594311211107
C         1.11442708900277   -0.00202427761517    1.96968616101742
C        -0.38581912383238   -1.19820065664124    3.98757607738359
O         2.11858323629628    1.19570405415660    5.28839230837385
O        -2.48056405771467    1.51807678474860    5.31245715504366
O        -2.45753707847892    0.07285449177525    1.14197134523231
O         1.84890627776466   -0.44732187219617    1.21893439136575
O        -0.47086584484087   -2.26597977587524    4.38497478630877
H        -1.63087723791739    4.67181824517720    1.40691179879973
H        -2.04993265629181    3.02949079344056    0.86444257089402
H        -0.11074456351821    3.27561845291188    5.22451324298621
H         0.44296285728698    5.16130742754253    6.71875748515082
H         1.25823246494404    7.28760839794424    5.76947103792016
H         1.51303391680841    7.53173893166450    3.32929466898517
H         0.95955689859690    5.65423729285147    1.83411240281303
H         2.72322506001689    2.83456380921508    2.70680584436720
H         5.00462015601135    1.91318203451167    2.46148561848770
H         5.82620862091100    1.24619311959660    0.23028756261957
H         4.36619504540280    1.48518976518954   -1.74090687120539
H         2.09282699590305    2.39608872144639   -1.49773850745066
H         1.89674858598804    4.84890358468513   -1.28159259360278
H         1.74342407161026    5.81837359695026   -3.53642852795910
H        -0.41179758672004    5.82394824362798   -4.73883884278363
H        -2.41818981051116    4.86930752421684   -3.66640785003727
H        -2.26918481494026    3.89250198588555   -1.41808239693798

