59
CSD_code = VOFXEU | q = 0 | S = 0 | Stoichiometry = C19H35IP2PtSi | MND = 6
Pt        2.18854583797265    2.55730383152725    3.84965289549789
I         0.95765685808423    3.84703047008563    1.76269016078960
P         0.02607839981313    2.05346672819283    4.77971771964077
P         1.92753343132915    4.64882649741685    5.12873947242315
Si        6.55363796408119    4.58607518625579    2.39275168990222
C         3.96164647663880    3.20574215006475    3.25335061675737
C         4.98638118176412    3.76766620922879    2.94261088131693
C         7.34299366076605    5.42833012455304    3.91761150060465
H         7.54849740949200    4.70737652838618    4.70359324310466
H         6.68829618244310    6.18924050245822    4.33330270493885
H         8.28194549601909    5.91003611912046    3.66048476342291
C         6.14757223212273    5.89522091379561    1.06891497076340
H         5.50703203350215    6.67638316681588    1.46797349884014
H         5.62449135870314    5.44532807116031    0.23084433730621
H         7.04643046307326    6.36943751938173    0.68424596851872
C         7.73965582510414    3.26571588796008    1.69723256939803
H         7.98835976185261    2.52338793637948    2.45005397797104
H         8.66925003929446    3.70762944206075    1.34944024346049
H         7.28727597041935    2.74397314196715    0.85945293271213
C         3.15275695841058    1.55794638056484    5.42387641362239
H         3.16622398283802    0.47819599143988    5.27390173006337
H         2.61841883438654    1.76904486166022    6.35433341430228
H         4.18162518690702    1.90021083158948    5.53614802751053
C         2.43664850364957    0.83678117818842    2.75272004842806
C         3.67973304361753    0.31019930678330    2.41806925995345
H         4.59020915190479    0.80457792213106    2.72873050413609
C         3.77544729969067   -0.85192578573582    1.67154903796747
H         4.75379892279649   -1.23729539480881    1.41989461762997
C         2.64287836017539   -1.52921164131829    1.24010283105382
C         1.40479885106519   -1.00534893330612    1.57695040306962
H         0.50191536245729   -1.50508608665050    1.25271262550141
C         1.30605607590661    0.15872296277859    2.32100683415743
H         0.31293437179190    0.53687578579732    2.54238571355328
C         2.76193860764485   -2.77549781001675    0.41555382367414
H         1.82893491977884   -3.33427862184695    0.41627781103398
H         3.55712227823781   -3.41480769004539    0.79447712895604
H         3.00330455196653   -2.51707308114015   -0.61577716271078
C        -0.28850576275675    0.46715394719754    5.63674989222111
H         0.53097502675136    0.24709941137176    6.31907711840652
H        -0.34141259371638   -0.32941957174102    4.89501123617763
H        -1.22607928108107    0.51393646196407    6.19129731265942
C        -1.55444655669860    2.28465894843788    3.88707783134488
H        -1.62986118066827    3.30848019387228    3.52275719311968
H        -2.38669559112098    2.06462310768562    4.55692254798845
H        -1.59784138295732    1.62302289105143    3.02287105341784
C        -0.21590945906285    3.25240892711109    6.17317633298240
H        -1.26136868618537    3.21792057211019    6.49916150429841
H         0.41025945548230    2.92257247362175    7.01004914918737
C         0.18450982407031    4.66096522863808    5.74608771080802
H         0.08505367024521    5.37364707749475    6.57166998979496
H        -0.45001919150365    5.00217132430422    4.92062649070045
C         2.09240413448271    6.30012842880355    4.37411201156525
H         1.44974650239374    6.37484466734225    3.49837914146544
H         3.12781080357423    6.41727042641307    4.05207872083175
H         1.83480504983073    7.07510647253656    5.09674803756669
C         2.89505470705610    4.89464107620662    6.66628105740072
H         3.94731937488370    4.95766296838391    6.38905046914120
H         2.76708643060602    4.05193899623033    7.34329294664868
H         2.59058886078388    5.81496536805481    7.16484504303027

