99
CSD_code = VOFYEW | q = 0 | S = 0 | Stoichiometry = C35H56FeO3P4 | MND = 6
Fe        3.63321939915992    8.32343676454624    7.94570489674037
H         5.06584585477255    8.37719441113257    8.02506510910918
P         4.16624449833951    6.87441007427967    6.36899776518057
P         3.92834850903284    8.95637571964927   10.04651184450642
P         3.73675433543217   10.17517363976132    6.80409776615050
P         1.47166850655493    8.06843649940464    7.93021673386779
O         3.50432720791428    5.46090960555229    6.82888576764271
O         3.37127202631326    7.72348562015008   10.95736188937701
O         2.85448025970710    2.91789067370774   10.77959336667957
C         3.50656250046907    6.59187715869129    8.89389315023507
C         3.40528190651636    5.38962202834008    8.20608235379097
C         3.19645585138522    4.17953039359821    8.84002964807242
H         3.12763921743992    3.26062238020495    8.28118814710681
C         3.06452370804849    4.15431411832636   10.22873647348750
C         3.13803221993357    5.33861183539525   10.95442883554763
H         3.03015692104916    5.36818784659215   12.02670467307019
C         3.34851431067360    6.52666857170264   10.26848389658896
C         3.66140143029792    6.78465891033437    4.56396323167990
H         2.74968939889366    7.39688318155571    4.54644924886097
C         4.69831360474790    7.43661286474343    3.65384371442703
H         4.24939806484863    7.70302660776156    2.69653914824484
H         5.52194343352229    6.75563036145050    3.45555406419782
H         5.10511042083319    8.33796985074354    4.10937323339571
C         3.28044797613473    5.39758506677013    4.06020736465014
H         2.83976339633374    5.48850411714482    3.06729223254123
H         2.54841021202303    4.93721157057557    4.71687811457157
H         4.14566452504433    4.74598436940694    3.99102119148352
C         5.95672137806315    6.30858439380304    6.48951379267546
H         5.97934529088013    6.09052358632903    7.57032056060004
C         6.25892659510300    5.00869476596114    5.75228611997843
H         7.18836376256697    4.58461848757570    6.13251298915080
H         6.38278768320962    5.17369831017905    4.68468854201755
H         5.46537461677221    4.28220901182887    5.91135789545109
C         7.01307838127438    7.36618996812623    6.21585156541355
H         7.98246987654094    7.01886657094409    6.57252877354733
H         6.76033192267436    8.27897606236812    6.74867370981705
H         7.10265939415093    7.58401224817096    5.15483002396375
C         3.27521285048057   10.33983501812196   11.13860959611291
H         4.00846166208419   11.14764767421155   11.03087257535205
C         3.15893760013541    9.95864529509604   12.61083855381418
H         2.81185371445850   10.82119064366342   13.17926794550430
H         4.10834695614452    9.63679906136258   13.02974867919982
H         2.44165793826176    9.15184155858543   12.73795082849531
C         1.93219102162821   10.84490882989822   10.63001470214690
H         1.68837277049845   11.80935452285422   11.07473737385777
H         1.14115029234523   10.14415636652286   10.88943202140362
H         1.96192357492765   10.96158678753156    9.54946256424643
C         5.70209821159707    8.94058127259382   10.67951537723984
H         5.63111568057157    9.12600147076693   11.75870336342460
C         6.58205403480199   10.00326922212093   10.04345715820827
H         7.61250568290535    9.89015835206233   10.37950499912063
H         6.25317973225625   11.00698334300117   10.30525978155276
H         6.56059812203475    9.88344005308326    8.96244134666431
C         6.31608894111290    7.56244943245253   10.46579468886288
H         7.35684878495178    7.55906007091029   10.78861267605464
H         6.27875118548895    7.30405864365143    9.40955023854473
H         5.78221094849465    6.79788734426869   11.02508835419362
C         2.93968005105371   10.33798312231819    5.14717275496516
H         3.09764817353654   11.34528845295043    4.76000527625305
H         1.87561404041909   10.12398093730721    5.18472505740794
H         3.40364269812380    9.61786869177607    4.47859860204838
C         5.40398204193748   10.71297992226692    6.22944979582885
H         5.34213656474766   11.68631740368948    5.74077362059909
H         5.77570724452497    9.97004904544689    5.52618126515913
H         6.09614143120211   10.77128965983744    7.06484078838468
C         3.23888358122012   11.79252444270969    7.52040766572706
C         4.06052733673059   12.30754874800690    8.51789477227102
H         4.92185756943618   11.73096486576326    8.81710621577576
C         3.78175510087090   13.51868609130891    9.11910507970454
H         4.43681466065086   13.90731362927168    9.88632336125299
C         2.65912874106396   14.23570974945321    8.73758368397189
H         2.43213593051022   15.18205302082578    9.20630503969707
C         1.83068289910097   13.73209601957721    7.75087317685978
H         0.95380445442115   14.28652411451474    7.44748875990401
C         2.11821138910653   12.52187417614461    7.14199172362208
H         1.45901850944525   12.16330925228599    6.36576036903565
C         0.31231893763100    9.48151237955624    7.65419635104804
H        -0.67401779425797    9.10902395368387    7.37431409150946
H         0.68309088240353   10.15155405454121    6.88601377962860
H         0.23362052022731   10.04570884605596    8.58106907010112
C         0.58805002488884    7.43094028219295    9.41391713857152
H        -0.48350420145623    7.41378146416856    9.20821013544425
H         0.79061779051974    8.10046121041305   10.24838344895822
H         0.92680649513514    6.43590827213421    9.68916624386637
C         0.75434673156925    6.91676771951671    6.69342214303908
C         0.42368438532934    7.38485901561759    5.42482321932482
H         0.58190397945991    8.42544088823107    5.18027666795567
C        -0.12300228402766    6.54396628483211    4.47335555880387
H        -0.37904876075880    6.93063570881468    3.49664357544710
C        -0.34252479972736    5.21020662088014    4.77152312800683
H        -0.76827928652142    4.54979609941296    4.03016750357734
C        -0.01053266793079    4.73005473429551    6.02676466188768
H        -0.17576840664989    3.68972375784571    6.26855780175249
C         0.53108760115387    5.57385174278221    6.97970853422251
H         0.78647303458632    5.17408466592637    7.94894836200220
C         2.73959852936904    2.82540572245564   12.17614182031379
H         2.60016280339629    1.76700182415303   12.39205451799372
H         1.87533187518033    3.38615753465200   12.54900419031614
H         3.64482389053970    3.18085326281643   12.67992038993947

