68
CSD_code = VOFYUM | q = 0 | S = 0 | Stoichiometry = C28H36NNiOP | MND = 4
Ni        4.71705283726043   22.94366800069754    2.67881135999762
P         5.11931974987324   22.10738575047520    0.71187180444768
O         6.59169744388513   22.89813825511012    3.18816915639898
N         4.33113669485774   24.11677722418124    4.19731871366876
C         2.83852292981738   22.48319018265294    2.50713808266551
H         2.16729876782693   23.32903722839920    2.34473338666074
H         2.62112487723320   22.05669398868405    3.49701922082764
H         2.60016162285426   21.71859609070448    1.76226820124563
C         4.04129639040244   22.62007749945273   -0.68657364708839
H         3.00416657929314   22.37467999726365   -0.47747867948312
H         4.35400270251915   22.11477247207710   -1.59874446608711
H         4.11904961202881   23.69661345890297   -0.82597427378687
C         5.05946699267967   20.28099276455747    0.54098769724964
H         5.76904997351368   19.83072442518651    1.23173698402439
H         5.31110125290146   19.99127291581492   -0.47824185571046
H         4.06314063766678   19.92058311937081    0.78640936058644
C         6.75443289331969   22.46375574415387   -0.03594117506726
H         6.91541517126144   23.53976084680577   -0.05373716896121
H         6.78997413343253   22.07510360325153   -1.05308745043827
H         7.53663311156768   22.00489832971624    0.56010588325136
C         7.08873451779678   23.00054298942618    4.36225475222195
C         8.41458400852055   22.51405611152312    4.64759009793351
C         8.91140571373659   22.63635695169934    5.92015321657194
H         9.89380621050739   22.25784742049990    6.15302218460665
C         8.19824587870242   23.24533604837287    6.95976012089158
H         8.64220354073770   23.31841880805257    7.94112143715639
C         6.95397351304040   23.74518245219819    6.71267928279515
H         6.38567568956323   24.22641110462559    7.49740412868649
C         6.37350178122553   23.62541060622302    5.43683189695224
C         5.09979684357334   24.21279489002765    5.23608486918526
H         4.76116864358121   24.86236155324103    6.05010613258171
C         9.22665557824061   21.87102486149118    3.53061032290507
C         9.46016305018024   22.92687325094822    2.44053200104925
H         8.51700501136652   23.35931398223634    2.12379993669758
H         9.95887931641819   22.48487254756299    1.57913457772701
H        10.08918565755974   23.72579549402203    2.82939530054517
C         8.45540166729631   20.66712504245197    2.97148524116740
H         8.35418782453593   19.90223692530107    3.73984868435566
H         8.98509006697248   20.23605671991811    2.12274494705901
H         7.46112715869379   20.96736512815700    2.65471812302633
C        10.59750518026457   21.36529464039750    3.99221304616577
H        11.21318349270015   22.17798184289244    4.37119296317855
H        11.11583429984532   20.92111765452894    3.14387969052667
H        10.49955405789408   20.60257225830335    4.76176459680880
C         3.16410633537925   24.90864954406326    4.20404101520151
C         2.23294027164381   24.78265527661012    5.23062297503953
H         2.40021136202765   24.04620017871082    6.00400700741101
C         1.09509967838542   25.56747291123014    5.24708197726536
H         0.37545376583483   25.45401590617028    6.04426899161932
C         0.88669261123422   26.49725469878228    4.24410297078340
H         0.00382057138819   27.11872771819331    4.25425825931347
C         1.81221171682003   26.63093733322307    3.22272405529755
H         1.64748680689357   27.36035310511614    2.44303622851829
C         2.95206935414902   25.84356461654796    3.17983268058353
C         3.97400929188026   25.99263419705401    2.08019654066123
H         4.42156896888351   24.99113710338329    1.89152200638341
H         4.77939177677486   26.64566616543583    2.43016532822084
C         3.40405291459095   26.52108928797309    0.79894898388871
C         3.80859421957090   27.74211602116793    0.27662163570498
H         4.54605974324485   28.33129794996487    0.80377496783607
C         3.27528970502476   28.21318326445255   -0.91129951464163
H         3.59905450904465   29.16587244003743   -1.30494851459127
C         2.32901043142837   27.46791542219451   -1.59217410551580
H         1.91278264996658   27.83515036137430   -2.51873426457459
C         1.91759548761531   26.24861384108439   -1.07828630833794
H         1.17863311895166   25.66229919330863   -1.60531328711913
C         2.45101406899005   25.78034235606440    0.10749631288224
H         2.13063756315288   24.83197992626452    0.51213537300603

