97
CSD_code = VOFYUL | q = 0 | S = 0 | Stoichiometry = C32H54Cl2O6P2Pd | MND = 4
Pd        5.12475194156179    5.20322620025014    5.50059211840296
Cl        7.22974592853910    4.82382374299735    4.69232494290656
P         6.04514306282625    6.14507177473866    7.37790259190758
O         5.96801412431115    7.30924481530394    9.80421422882891
O         6.05903627113818    8.70068240754141    6.81365154851149
O         5.94465970950680    9.51833355531212    9.00818748706031
C         5.04275551667841    6.86956094703377    8.81034948213289
C         4.23344385630227    8.04088290533458    8.26356902665989
H         3.64278694915597    7.71715721266487    7.40582750727931
H         3.57005040023374    8.42998725040064    9.03837254971668
C         5.21355740175323    9.14235757176435    7.85730098645461
C         7.04811897372213    7.72587363971691    7.15399919441896
C         7.78202421901978    8.11934633236727    8.43096376381156
H         8.42198471333925    7.31115947013763    8.77998834483418
H         8.38639427907142    9.00982619667581    8.24421086909875
C         6.73220342752274    8.45552597198074    9.49632927879039
C         4.13934500255590    5.85581896449021    9.50306637260898
H         4.73050292072843    5.08265926724528    9.98575441266657
H         3.45397990145378    5.41607871868423    8.78329772577135
H         3.56294908071964    6.36681763684223   10.27170227438679
C         4.50084560485409   10.38517068922301    7.33617567226990
H         3.84930824989490   10.77994275751778    8.10835404789500
H         3.92383651751405   10.12060358851125    6.45622605260081
H         5.24259484470089   11.13262172709845    7.07231569617274
C         7.97646651743793    7.67408974110106    5.94945527353041
H         7.38316219429659    7.48257992291550    5.05494357566019
H         8.71915195086624    6.88963167755317    6.06007768887203
H         8.47181901323421    8.63612433272470    5.83337029873532
C         7.36688500773350    8.91834784411586   10.80397508761533
H         7.96002380740062    9.80858365795476   10.62356701386057
H         7.99036224477020    8.12500639776256   11.20358652981507
H         6.57803369459258    9.14964412712381   11.51287729782873
C         6.97508244692740    4.78598178364692    8.25090577577895
H         6.92834627881186    5.00584990753516    9.32697354786265
C         6.18308079559824    3.50181224021874    7.94288838698460
H         5.12545387619346    3.62980413024374    8.20554785944767
H         6.24506856557937    3.28991734313888    6.85846053929532
C         6.76581722982800    2.31491978481570    8.70311041153950
H         6.68173604174193    2.49270114329208    9.77852542024873
H         6.19921835100995    1.41211576789066    8.46709592308511
C         8.23300494062342    2.12541839136488    8.33136423292931
H         8.65625598735455    1.28868052214757    8.89056871852799
H         8.30872592080551    1.89287734078429    7.26709734341648
C         9.02002856068846    3.39916748607468    8.62240359233018
H        10.06563207122389    3.26265694232192    8.33965370008359
H         8.98777627522837    3.60988081946137    9.69488506437083
C         8.43658354851444    4.58196433048271    7.85032241842939
H         8.50044426105033    4.37940280375499    6.78023989704733
H         9.02859278749491    5.47464597793622    8.06227877672031
Cl        3.02016820169803    5.58204586393961    6.31059825183617
P         4.20413873966808    4.26079743608106    3.62313075748218
O         4.28098932223693    3.09672522958583    1.19663116585470
O         4.19032808405750    1.70501991714757    4.18700892423446
O         4.30447536609453    0.88756838105497    1.99235206495742
C         5.20631809014795    3.53634419879661    2.19047690127432
C         6.01574739960058    2.36499498175569    2.73708103414969
H         6.60634132209991    2.68864402299073    3.59491559685457
H         6.67921636446697    1.97598355131072    1.96228391239525
C         5.03567749922919    1.26341947798558    3.14322124636570
C         3.20124915258351    2.67986965662607    3.84682233356232
C         2.46713562144442    2.28636662090984    2.56997345606304
H         1.82695014117260    3.09445326024571    2.22114477044663
H         1.86297762368531    1.39574480256767    2.75676550412846
C         3.51683456046233    1.95040985859749    1.50443272131388
C         6.10976265316348    4.54995887039148    1.49757796493091
H         5.51857698772374    5.32321095602383    1.01506752721345
H         6.79541104761112    4.98961156378797    2.21714223529529
H         6.68583279703216    4.03892643715371    0.72870094106299
C         5.74838149635419    0.02048616879382    3.66408575814096
H         6.39962061263030   -0.37433842071830    2.89167817090483
H         6.32569339687876    0.28488951067729    4.54388687612162
H         5.00660193667903   -0.72688053267715    3.92811002579390
C         2.27312123531611    2.73173124824387    5.05153390777765
H         2.86657584456645    2.92302082782460    5.94600520129445
H         1.53051305579606    3.51630002009727    4.94112813826919
H         1.77765763134402    1.76974421578552    5.16755589879371
C         2.88199868526978    1.48785239342942    0.19677099450205
H         2.28882311265407    0.59761377510670    0.37703429099337
H         2.25853326252000    2.28132424916200   -0.20260921153016
H         3.67078208600318    1.25668598475309   -0.51224977204068
C         3.27409977945965    5.61974891574886    2.74989620109873
H         3.32105910658637    5.40007290216604    1.67378730913262
C         4.06591861009632    6.90394098030861    3.05824575908760
H         5.12359098248583    6.77601538827775    2.79572785313723
H         4.00375409100247    7.11558507985351    4.14270853016241
C         3.48327523214335    8.09095147577937    2.29810792200798
H         3.56754988071215    7.91340498915401    1.22266910164805
H         4.04975814273939    8.99375174917514    2.53439376199009
C         2.01602032185201    8.28031246237071    2.66960971238128
H         1.59282523745091    9.11717108516646    2.11054625602352
H         1.94008435741920    8.51254761475875    3.73392283746803
C         1.22920553119451    7.00655789296525    2.37810683953745
H         0.18351752246824    7.14297603389481    2.66056333677435
H         1.26175772364706    6.79611972120699    1.30557307183444
C         1.81251194264758    5.82366948845177    3.15022501787247
H         1.74834013514803    6.02595551114533    4.22036246237351
H         1.22061280652719    4.93101642206374    2.93784588974109

