64
CSD_code = VOGBOJ | q = 0 | S = 0 | Stoichiometry = C28H25ClCoN5O4 | MND = 6
Co        1.38985559154635    1.82290241492731    9.90411242489679
Cl        7.39122230389350   -0.40466539760761   12.82235936889455
O         2.71354304143229    1.74631593674773    7.46293332474580
N         2.61870415646295    2.54044498208396   11.12626890075620
O         2.38480535008337    2.72109429502667   12.44868347823376
H         1.40274915452522    2.41113921072633   12.58830613762852
O         0.36491473992859    0.82617778177982    7.37761450185807
H         1.35317442600662    1.11717374783834    7.22889876923448
N        -0.06777796072124    1.64593345903990   11.10716434551089
C         3.88360914386086    2.58733408397786    9.21786000431647
N         0.77082635264389    3.77165705330173    9.43969478682911
O        -0.03638541258525    2.00408595591201   12.33874502626249
N         0.14476249320316    1.09587666169406    8.68312071979001
N         2.82271566621664    2.01131505739020    8.71755986421190
C         3.77669748002377    2.85255068901797   10.63541024300650
C         5.04316715118584    2.99623648278975    8.41338347774546
C         5.59501054603683    4.26631051276637    8.57643922151460
H         5.16371298761105    4.94972268790302    9.29357417885831
C         4.89764835681409    3.37148080513195   11.42958243927147
C         3.45511021582302   -0.12772079132138   12.30360830890337
H         2.58143479984858   -0.00763562581355   12.92643969641734
C        -1.14998161306115    1.17845781160772   10.55980993781703
C         6.17862787263931    2.85617014209473   11.23676212488790
H         6.33705387712340    2.08224582853823   10.50301909946188
C         3.30363202827578   -0.19648080081508   10.91526959881533
C        -1.01825043695797    0.86096211108385    9.18186715516647
C         5.58617996694861    2.13851222014675    7.46059013507801
H         5.15441966255563    1.16116823593394    7.31472214168646
C         4.45252946076202   -0.37555188888643   10.14015363083026
H         4.35726237421397   -0.46001089183357    9.06775725016042
C         0.78183408950246    4.21299722208700    8.18354728540332
H         1.08836348261951    3.51583731553182    7.41547086990548
C         1.98057089772519   -0.08505033637172   10.28594751150234
C         0.43192821050521    5.50737299026954    7.83929061717145
H         0.46065969660297    5.81256294475250    6.80558038743223
C         4.70104991768439    4.36130773629171   12.38920645315122
H         3.71554642455244    4.77305434131696   12.54229989885040
C         6.67474270657241    2.53395315812471    6.70596573587515
H         7.09274540175408    1.85782787002993    5.97478514757005
C         0.03645237795129    5.92876573739794   10.14534356242250
H        -0.25398556293253    6.57192495863601   10.96073303501100
C         6.68137789761987    4.65637726905120    7.81771527459371
H         7.10227202083226    5.64198501543028    7.95326093392848
C         0.05187195952319    6.38823108626407    8.83839953233466
H        -0.22548763600992    7.40514054939954    8.60513215206242
C         5.70364672726980   -0.45722072519175   10.71743909789546
H         6.58322517117929   -0.60084555537548   10.10819480208021
C         7.22846794739292    3.79009340038167    6.88505337517404
H         8.08001501441451    4.09689936119813    6.29586638631356
C         4.70112246004628   -0.19214881828411   12.89212400960680
H         4.80632211359574   -0.12021297835231   13.96322577602462
C         5.82296530091000   -0.34843501562874   12.09395452044416
C         7.23557405175232    3.31536996631577   11.99758616248015
H         8.22054510373650    2.89963040737631   11.84781126654446
C         5.76609157226019    4.82538582716672   13.13866085678661
H         5.60367094818409    5.59624842445854   13.87753604509050
C         0.40183238213532    4.61833418867001   10.39939366153482
H         0.38658707698912    4.24190294369836   11.41320510334097
C         7.03368930690330    4.30230283037584   12.94864426131209
H         7.86214598823497    4.66109979000670   13.54128027210298
H         1.97876546365460   -0.60215896922410    9.32484270566920
H        -2.06726331272588    1.04757953820381   11.11802176998858
H        -1.82611059338451    0.45395596702986    8.58740898556469
H         1.21589161661300   -0.52047121222077   10.93076225204008

