55
CSD_code = VOGCID | q = 0 | S = 0 | Stoichiometry = C24H20N6PdS4 | MND = 4
Pd        5.31466598090866   14.49528691387439    9.45888532607716
S         4.98236923094400   13.05972974451137    7.63390194674170
S         9.65725342115556   11.86676887238024    9.36360500153223
N         7.07427318861706   13.55725149115699    9.57309978854485
N         7.37104150685510   12.58122712354037    8.70348462975425
N         6.91169301107915   11.26192836841145    6.96133187564846
C         6.50245879309521   12.26306244580512    7.77665494526989
C         8.01576661892268   13.81168318133529   10.44464622085692
C         9.25813264020907   13.13182884544940   10.48779951884113
C        10.29264457305364   13.35089915486692   11.37424005217697
C        11.39182805538190   12.51180039151350   11.15101457859708
C        11.19414442724354   11.66143285306173   10.10348480069903
C         6.35644743478206   10.61429660520328    5.86535080163714
C         5.12564979642108   10.93083031032081    5.29679473521459
C         4.66854040202685   10.22111250710215    4.20087096653409
C         5.41819653550653    9.19443836818291    3.65463474144963
C         6.64471754361070    8.87580810289551    4.21605841079992
C         7.11054407890435    9.57697078729280    5.30881689473177
H         7.83814636642716   14.58848363286019   11.17861638599532
H        10.24576181473888   14.09309105558219   12.15077496404041
H        12.29103857530800   12.53670791111793   11.74082805116132
H        11.87244174874231   10.92216273380001    9.72535626940617
H         7.83029227283654   10.92266828813067    7.22685864599073
H         4.52721817936777   11.72679961424060    5.70395066669236
H         3.71255297997135   10.47896737323821    3.77025053264868
H         5.05298991428443    8.64694883193085    2.79928605142011
H         7.24133716832778    8.07731145964981    3.80027674387476
H         8.06801194233613    9.32660380334082    5.74464563191914
S         5.64708122837354   15.93227861855479   11.28295999449101
N         3.55477620676953   15.43252639475878    9.34462780010928
C         4.12688341529152   16.72869016525384   11.13955469470223
N         3.25819261014800   16.40946707138062   10.21317754673840
C         2.61203000158892   15.17532471232732    8.47523814142722
N         3.71754559162366   17.73090870032636   11.95349835223933
C         1.36849279747309   15.85309241059989    8.43352498774681
H         2.78940087792671   14.39776121666456    7.74203299208781
C         4.27083292879824   18.37758897901750   13.05099434875230
H         2.79898934286712   18.06974761514638   11.68721583958918
S         0.96954221849186   17.11925004003421    9.55651523831149
C         0.33250707215013   15.63075160053391    7.54962744035292
C         5.50101258771291   18.06104852436710   13.62098354463162
C         3.51514826584419   19.41373134121206   13.60771446859277
C        -0.56908913861284   17.32100331906094    8.81926152419476
C        -0.76758230556733   16.46843776129725    7.77367553784317
H         0.37900505586192   14.88723556874434    6.77433539916884
C         5.95604285173084   18.76974551413970   14.71841914916854
H         6.10010565860812   17.26560635788564   13.21405515385863
C         3.97885626060323   20.11385229993392   14.70205544049390
H         2.55814147271654   19.66397788546608   13.17082102532904
H        -1.24780122058018   18.05981069426044    9.19753974876656
H        -1.66798627186324   16.44099481661565    7.18580490192802
C         5.20478805487670   19.79534512759274   15.26484581230678
H         6.91138583755603   18.51178297818952   15.15034715004747
H         3.38145935658729   20.91170624956142   15.11758096325352
H         5.56858104196888   20.34223326628072   16.12117362560940

