69
CSD_code = VOGDUT | q = 0 | S = 0 | Stoichiometry = C32H31ClN4Pt | MND = 6
Pt       12.42208197195254    7.87312359309225    9.11497206399605
Cl       11.53118758252660    5.61237210149019    9.30289712336626
N        12.04126831456483    7.67420555894137    7.18333441974453
N        13.24987392259265    8.34589569182564   13.20632030255593
N        13.57267368447975    9.49820595935242   12.65823523687521
N        13.31527005075369    9.34295102567782   11.38167803033020
C        10.47255622465790    8.62586429362965    9.08747081759796
C         9.65828468284665    9.13928807569579   10.08525393921057
H        10.02973867246340    9.20662556643008   11.10152791738080
C         8.36084474268387    9.57408945868154    9.83316000675141
C         7.86709674258108    9.49842914092718    8.53596773026619
H         6.86170191557110    9.83645637233176    8.32629360862478
C         8.64738901401467    8.99350218623029    7.51767691515501
H         8.24356293210764    8.94323667861073    6.51668465534194
C         9.94506301027641    8.55470533571586    7.77817233373299
C        10.81219425442366    7.98129721496194    6.75174126608066
C        10.46978939991465    7.71087854872701    5.42679748352258
H         9.48602533543611    7.94619956951617    5.05571748591790
C        11.40778143485890    7.11576820007642    4.60080673698647
H        11.15676047680586    6.89560453694230    3.57325045922999
C        12.65954784628907    6.78423715434225    5.09021371883819
H        13.38235885216710    6.29836454936583    4.45593362970125
C        12.96193755479812    7.07165124956127    6.42130461768730
C        14.20457786015986    6.75707678536701    7.12272940876320
C        14.25068902496773    7.06546406841072    8.50241655637409
C        15.40957134143266    6.74926198620949    9.19400864840446
H        15.48485915415886    6.97345783727870   10.25194964118051
C        16.50062057531675    6.14085105065871    8.57899332743871
C        16.43098149598519    5.85130111507081    7.22243230718929
H        17.27061623853623    5.37949132485376    6.73101463160587
C        15.29644443074860    6.15574548245213    6.49899890008725
H        15.26217698751997    5.91841366183685    5.44542228285601
C        17.73191615969810    5.82447891180530    9.37279095218044
H        18.36259435638607    5.11148830154436    8.84680705583618
H        17.46694324298035    5.41137547710688   10.34449864017522
H        18.31076174221585    6.73354402823959    9.54185566777663
C         7.50036339225138   10.09482513678769   10.94403395751206
H         6.81270571607883   10.85509091459280   10.57920445771291
H         8.10734442796252   10.51886498258996   11.74113336113836
H         6.90902765626620    9.28088522503285   11.36579763256891
C        12.82023008689986    8.10903465030317   11.06564354807564
C        12.78175837947798    7.45880089107818   12.29600311056853
C        13.40435525110989    8.16489691191759   14.62042094664106
H        13.84711098622436    9.07277413544371   15.02431936888095
H        14.05546744852014    7.31475949463364   14.82470284368530
H        12.43461365294252    7.99253478630874   15.08986140040385
C        12.41108499192720    6.05752520106366   12.60220310056633
H        11.57722471698196    5.77857900343787   11.95535404791983
H        12.11311694543786    5.94864953603797   13.64680512555899
C        13.58557960837386    5.12364063465450   12.27624956392457
H        13.82739025123737    5.24657957684813   11.21945267600426
H        14.46410995249506    5.40195147645831   12.86714385025557
C        13.23007218260531    3.66427314331577   12.53467569540643
H        12.96613473735701    3.52678481823170   13.58708300974509
H        12.35890420213949    3.40785543308604   11.93074179741812
C        14.38633806030328    2.74162651804007   12.17127036633785
H        14.63834195699916    2.85591489451154   11.11976837915251
H        14.11863946447730    1.70307922293671   12.35028839070032
H        15.26889871622764    2.97573581541616   12.76452773639015
C        13.50283381635478   10.26735781163306   10.35747439848599
C        13.14594351661865    9.77964283806029    9.09005977781439
C        13.30658230294260   10.64137328566175    8.01444577358402
H        13.04738463683074   10.32067965759994    7.01415520063908
C        13.80061271594383   11.92314941606106    8.20423659794949
H        13.91800044711264   12.57829157687759    7.35333486561835
C        14.14528888112910   12.37675669587180    9.46982869762993
H        14.52783398848001   13.37763296575210    9.59970820219232
C        13.99851938914957   11.54667913177365   10.56418856161900
H        14.25674629227478   11.86687212501460   11.56175503913475

