69
CSD_code = VOGFED | q = 0 | S = 0 | Stoichiometry = C27H38IIrP2 | MND = 5
Ir        0.85864136109798    7.38365266260572    3.09018459264035
I        -0.22865077724232    9.10346156478468    4.78883447228214
P         1.08141145617880    8.92021745759284    1.38427966194242
P         1.22221395319317    5.74178188839995    4.66638030748946
C         2.15374543219147    8.01534868877177    0.22984151998089
C         2.51603019210629    8.43174564670885   -1.02301170997270
H         2.11391715653733    9.34065774443769   -1.44641699344775
C         3.41965727588344    7.66966942892978   -1.78731704002244
H         3.70257853481308    8.02158835075326   -2.76909772010816
C         3.93380632732301    6.50783624747541   -1.29558170791055
H         4.63268185284887    5.92591129361333   -1.87988560669165
C         3.55398100033318    6.01598102129454   -0.02126817641567
C         4.01329752890694    4.79545246006585    0.46489732707949
H         4.69068929386830    4.20422615875128   -0.13524121587214
C         3.58288644519380    4.30809813438461    1.69534092160492
C         3.99047971759776    3.04275102874519    2.18863092178351
H         4.68153592635939    2.46155168292118    1.59438189947719
C         3.51479314909482    2.55671546801613    3.36908790665662
H         3.81987049009823    1.58219883059428    3.72274566601839
C         2.62853614440347    3.32082992002597    4.15198383514857
H         2.26637306582429    2.90759014265611    5.08248197614756
C         2.23557893402245    4.56161884714339    3.72945189100721
C         2.67508836814695    5.08570150132379    2.47873282599797
C         2.19982480488781    6.32575407804334    2.01691892275674
C         2.64020842628645    6.78619139356281    0.76371678391118
C        -0.20669836289389    9.73437966080309    0.31366427144822
H         0.32948486861846   10.35447036729426   -0.41500463949753
C        -1.11457826291315   10.61582440903313    1.16570674448077
H        -1.88564901633945   11.06927650628587    0.54464630601562
H        -0.55928712507492   11.41435646219103    1.65294948636417
H        -1.60467590381481   10.02311554838476    1.93525452330705
C        -1.02477745133938    8.69355486799328   -0.44310111352117
H        -1.65178111007451    8.13153591752444    0.24405754973208
H        -0.37762430370923    7.99873579636696   -0.97705028088634
H        -1.67215398558160    9.18574574554206   -1.16780073306800
C         2.13660103363865   10.36811325347326    1.92233597206908
H         1.49844683902027   10.95555047054706    2.59559064802441
C         2.64789061678946   11.27028959967528    0.80614209071847
H         3.25666997482207   12.06321821925677    1.23950605640809
H         1.83621869731501   11.74166871303442    0.25734031525597
H         3.27157183090921   10.70987817801466    0.11211464245400
C         3.30529248340344    9.81344812153078    2.73224203390321
H         3.92283664714162    9.15347576426724    2.12203243770109
H         2.93860907206084    9.25334976847618    3.59370089059994
H         3.93107168045477   10.62193453891708    3.10752777212126
C        -0.00091574698010    4.70927491129169    5.61467335802972
H         0.58293971601434    4.01698073303012    6.23317040583204
C        -0.88432565025340    3.89663657496845    4.67450999148917
H        -1.50243103586558    3.20895934016157    5.25029413366990
H        -0.28398750985569    3.31595336420698    3.97532583711228
H        -1.54288540661597    4.55210252886477    4.11064230232990
C        -0.85042802082951    5.60813044106161    6.50797160962456
H        -1.44505849364503    6.28800872523329    5.90195729815017
H        -0.23692289935797    6.20578592676500    7.17923519993753
H        -1.53057715083793    5.00692264088522    7.10953782554984
C         2.41173611391014    6.32393713580465    5.99210226608777
H         1.93395249673849    7.20516049773090    6.44091197476472
C         3.70218902256970    6.76179889289925    5.30122935449233
H         4.32538535985614    7.33938764318088    5.98233058677487
H         3.49241580822595    7.37632768241227    4.42522400139065
H         4.26836576373371    5.89374614091999    4.96582241571197
C         2.73061356928253    5.32222830952379    7.09583472260502
H         3.13184644010829    4.40034296420689    6.67888767823931
H         1.86023643953702    5.09252372024052    7.70513990641996
H         3.48944578483297    5.74912104350692    7.75103653437112
C        -0.46403237679618    6.17284943146594    1.98846148324527
H        -1.47372012426904    6.46854337444671    2.29358887709992
H        -0.32989496703929    5.11138598998519    2.18957056636707
H        -0.36509141484589    6.30943843699750    0.91311543559027

