103
CSD_code = VOGFOO | q = 0 | S = 0 | Stoichiometry = C42H57NO2Ti | MND = 5
Ti        2.23276784032902   14.77913891834161    8.27551183729962
N         1.28284697998448   13.25090226099513    6.81962178809195
O         1.05812966674704   15.94084568067394    7.24176412523072
O        -1.23760618129315   12.15254166596468    7.26525156749034
C         1.64536263505672   14.54657527798807   10.27150600661598
H         2.54640074219995   14.56094558288029   10.90985259040674
H         1.24225834319144   13.52184278818917   10.31270725145273
C         3.71916640913260   16.27605705115103    8.34569629574501
H         4.32335942546186   16.19387477503443    9.26339941563971
H         3.18590359116012   17.23566640925052    8.41950843603331
C         3.67585319236859   13.26756814575990    8.53947168009312
H         3.21494057742366   12.38332891306789    8.99927076539955
H         4.47652421128062   13.57412284298505    9.22625115506851
H         4.16536707382836   12.90774315036814    7.62479497715374
C         0.60755858536966   15.47496350694324   10.90219443510756
C         1.16550238000580   16.90039322177847   10.94824329889608
H         2.04438789691600   16.93935152283526   11.59098603064289
H         0.42671455462444   17.60108333586711   11.33505440916876
H         1.46252891417964   17.20733688675423    9.94581694408756
C        -0.68966380171063   15.42818511371954   10.08441791697116
H        -0.47279381039050   15.54001189651989    9.01952276733662
H        -1.37495452667898   16.21754000346368   10.39200566173612
H        -1.18384510022722   14.46919065225803   10.23137709945784
C         0.28996019346060   15.02601529541211   12.33873863067664
H        -0.08744912886478   14.00502129125043   12.34359106781017
H        -0.46236161442733   15.67345411100583   12.78717278638800
H         1.18492436479805   15.06266984058770   12.95697664298634
C         4.67033339218140   16.36786569102147    7.13631403963594
C         3.98532506725544   15.82931840114989    5.86772777926894
H         3.08994157476560   16.40825118235169    5.63560434923868
H         3.70430021239278   14.77874375796671    6.00931341627208
H         4.66060433970361   15.89819219330570    5.01369159890827
C         5.95716959849271   15.56833452894238    7.37636995009916
H         6.62555854526586   15.65991601877074    6.52082015709417
H         5.73935337195803   14.51621406505830    7.52992263137209
H         6.47974817517173   15.94465768646030    8.25397663738379
C         5.08219476849111   17.83003640577911    6.88968527340753
H         5.53646184478043   18.24944289345668    7.78557697150583
H         4.22227910100268   18.43935488234526    6.62323736648302
H         5.80720121144247   17.89533935071941    6.07927408352727
C         0.28826701340503   16.01226809554548    6.20323608276481
C         0.05749706987222   14.83894697811592    5.42277902420250
C        -0.76954865477814   14.86820858182654    4.28655584579364
H        -0.90502662042544   13.95534293281248    3.72131201233464
C        -1.40428309670848   16.01757994632856    3.90485838092044
C        -1.17246091905928   17.17320545113540    4.66180605584812
H        -1.67421560716621   18.06571327234554    4.32614097633332
C        -0.35347217577533   17.22453115215378    5.76737325409164
C         0.62546711518554   13.57752267766419    5.75944540918659
H         0.41890250535091   12.78903689846735    5.02243770831198
C        -2.31331492453243   16.07642603914844    2.71403304526491
H        -2.38565703146603   15.10385543759534    2.23368779377629
H        -1.94154307407803   16.79611033921182    1.98541907690986
H        -3.31271360115183   16.39178089220113    3.01260185355143
C         1.70460709448502   11.90628565521214    6.83123384991349
C         1.25875391078765   10.98951245850919    7.79191289376353
C         1.74707322089931    9.68562207059116    7.74623957962620
H         1.39517548303421    8.97627062577280    8.48160384822992
C         2.64245542967591    9.27953669183241    6.77551040722521
H         3.00401842236142    8.26237342907070    6.76431804835297
C         3.06577576011547   10.18299286149694    5.81554980863034
H         3.76156387493950    9.87930631903371    5.04749621384849
C         2.59128176161498   11.47922056419048    5.84133511585188
H         2.92765352649976   12.19701118648554    5.10305179267634
C         0.29490645935590   11.32847670777030    8.85704454630847
C        -0.95989159114662   11.89707581812638    8.57644947225691
C        -1.85980650956203   12.11161315686943    9.61493875150426
H        -2.83236830017406   12.53490080295153    9.41782111551808
C        -1.52953332554585   11.77103277270104   10.91654618334796
H        -2.24564704846477   11.94498367614917   11.70629019168432
C        -0.29758652746510   11.21368905796408   11.20096543032335
H        -0.03604436949440   10.95106068009785   12.21463611259714
C         0.59988064243947   10.99213777015735   10.17125022034725
H         1.56692753315258   10.56008012438200   10.38483211758221
C        -2.44268475707614   12.80294208578598    6.94614303111959
H        -3.31294796523816   12.19295798368088    7.21064320893041
H        -2.42363071493558   12.95085747371329    5.86754569223316
H        -2.51316776035335   13.77918243105468    7.43685558149291
C        -0.11261071590954   18.55515113369460    6.47547868678333
C        -0.88728013963051   19.72231073996846    5.84515410748897
H        -0.60011167269685   19.84060617935580    4.79775463005029
H        -1.96145410834707   19.52841389984952    5.89488545265010
C        -0.52614966109931   18.45687203027585    7.94924829248592
H        -1.59573589494916   18.23766916363888    8.01241498707117
H         0.01895886576657   17.63925309372620    8.41671970970591
C         1.38433282510444   18.88806938337166    6.40026503645991
H         1.94595970501772   18.07314350668950    6.85778886262777
H         1.68517734536273   18.96942450582601    5.35143649790009
C        -0.58824868398001   21.02939859595974    6.58027055090617
H        -1.15782749972975   21.83882777712001    6.10737433780795
C        -0.21814058632363   19.76137914466328    8.68222455332927
H        -0.51019520072769   19.65838281253432    9.73374015034088
C         1.68385511330968   20.19494471389899    7.13213302020040
H         2.75822667741665   20.40610795552991    7.06920078375435
C        -1.00150465198445   20.90602813938196    8.04451461898782
H        -2.07444226642179   20.71030539782976    8.11363898069269
H        -0.79735638298514   21.84166267600633    8.57065092962322
C         1.27661499427791   20.06573521256589    8.59815371427609
H         1.49615571531594   20.99572088104524    9.12840723993982
H         1.85007287949631   19.26814681853681    9.07440016773906
C         0.90378730754200   21.33820498956664    6.48850305602240
H         1.19796138132213   21.45010284936866    5.44199644121623
H         1.12423778937747   22.27795010307586    7.00042562209693

