100
CSD_code = VOGFII | q = 0 | S = 0 | Stoichiometry = C41H54ClNO2Ti | MND = 5
Ti        1.31270178980366    0.93237465578927   10.93794569869684
Cl       -0.37128019581234    0.33150378536208   12.23602209485892
N         2.65499265600471    0.66754415643450   12.80780279815268
O         2.90110943479951    1.22755111821286   10.21491623008017
O         3.91221441022870   -1.67470096031869   13.83939316719216
C         0.58013699238603   -0.18529341372561    9.31586198383131
H         0.94981976893683    0.23865536323456    8.37216441528286
H        -0.51587864862273   -0.08159757890909    9.29784664782958
C         0.41487853555070    2.72490164129980   10.32230631850999
H         0.74872618353456    2.99011989884987    9.30675985578497
H        -0.66978895173333    2.53465913811500   10.25939581719118
C         0.93895769431940   -1.67737733010469    9.37438484328028
C         2.27242586071439   -1.87886439368810   10.11513270764429
H         2.19374647754698   -1.47923783485906   11.13478363377955
H         3.08979811097756   -1.37850788583256    9.59134787910589
H         2.51130973689891   -2.94100615675944   10.18159939113292
C         1.06958986183624   -2.25837868805611    7.95700012109248
H         1.25837426979903   -3.33011455838277    7.99783863664346
H         1.88968978622025   -1.78696360141281    7.41853861917183
H         0.15157746958060   -2.09572388093253    7.39567606461238
C        -0.15618053481586   -2.44959212009215   10.11795146941373
H         0.12887615250484   -3.49185578290042   10.25357074294772
H        -1.08815320940696   -2.42020688036731    9.55587797530355
H        -0.33161474990516   -2.00907686594468   11.09774378709778
C         0.63579992575755    3.93398831507406   11.23652108954710
C         2.13505532332087    4.16298214139038   11.47877870469297
H         2.28693714092077    5.00838908716249   12.15002737667120
H         2.64648066725382    4.37972929140142   10.54178789324290
H         2.59257582511461    3.27530567587488   11.92575385745570
C        -0.06705977736321    3.71319662779618   12.58088031271480
H         0.30342158617426    2.80991787955118   13.06906801707659
H        -1.13984718661458    3.59714770302152   12.43293399423619
H         0.09570457195471    4.56105889753915   13.24595640649117
C         0.05204998329373    5.19667346720033   10.57987864857708
H         0.17939946922362    6.06298676096883   11.22706734918286
H        -1.01106956791516    5.06710129464872   10.38799116289093
H         0.54867303731544    5.40087329752690    9.63279781362614
C         4.19514965011403    1.28268438451978   10.35572024489434
C         4.75208992617628    1.08127734643310   11.64976324492943
C         6.13947349965208    1.12230400373098   11.84997340368930
H         6.52434925854803    0.97028966184090   12.84915011805394
C         6.99757749262018    1.34228185980915   10.80305863926397
C         6.44625383213017    1.57409072502353    9.53831895545824
H         7.14093873622360    1.77198667338102    8.73828763625342
C         5.09129629828651    1.57179278227056    9.28013203571735
C         3.91951772397933    0.89794497930283   12.80021054196903
H         4.44395334489262    0.97526178370078   13.76121093976494
C         8.48560314600443    1.36027529709041   10.98224371563002
H         8.75315817688449    1.19783512593140   12.02307107047852
H         8.89645916139368    2.31699085960048   10.66271041166700
H         8.94997479924353    0.58111556953485   10.37874049762528
C         2.05385370553241    0.64144508638998   14.08458992763941
C         1.49242475520350   -0.52303897732374   14.62064816859145
C         0.85254592037662   -0.44434345647129   15.85388396549000
H         0.41674762500618   -1.34285769348878   16.26591992178449
C         0.78389670523810    0.74155188689942   16.56000964294847
H         0.27726323171232    0.77500668664279   17.51270578650538
C         1.37757720947860    1.88035026302018   16.04473236970659
H         1.34544840027646    2.81112151448613   16.59119023758176
C         2.01602948157453    1.82514962504649   14.82090980517384
H         2.47480837026952    2.71418369677579   14.40651071609749
C         1.56061787129598   -1.83826493663104   13.95507647902630
C         2.78769802852725   -2.41530985305682   13.58687232233013
C         2.80760339656211   -3.69186560132000   13.03853467979392
H         3.73994119627418   -4.15189270816688   12.75082712454910
C         1.62816602387926   -4.39570069597662   12.86036707839947
H         1.66543228460528   -5.38840745941454   12.43599851048783
C         0.41848039863323   -3.83709857384419   13.22545647085843
H        -0.50071475739497   -4.38447309520255   13.08491918754864
C         0.39247845017800   -2.56694874136455   13.77338209648392
H        -0.54592697270850   -2.11059940124774   14.04853580772689
C         5.16103301653917   -2.20952422766569   13.48113470740654
H         5.36254731560214   -3.15012851421959   14.00395613332043
H         5.89928796520761   -1.46915085119313   13.78524013051631
H         5.23661977982861   -2.36556238847227   12.39966050771492
C         4.55736172594996    1.88498475597591    7.88820281494154
C         5.65892920407504    2.21994174016876    6.87285425427680
H         6.23084612782200    3.08667123598278    7.21237860495690
H         6.33988313142675    1.37249882099111    6.76441075490167
C         3.77832294255844    0.67489687199751    7.35523052055149
H         4.45639469036801   -0.17897356912414    7.26371535790205
H         2.99333440245389    0.41957161564871    8.06679138639578
C         3.61595794436204    3.09568515865739    7.98088589987079
H         2.82082922692202    2.87428082812610    8.69458290394927
H         4.17939880262300    3.96061617145582    8.34301751916889
C         5.04695158600264    2.53454679851112    5.50600897648678
H         5.85537057522615    2.76787015597131    4.80270490826955
C         3.15863921200961    0.99559270793660    5.99664804799283
H         2.59474812727954    0.12422414913846    5.64327631483483
C         3.00338864168983    3.40462720171093    6.61726167047356
H         2.32856704210720    4.26341419884355    6.71286033348902
C         4.26480331204128    1.32589813079251    4.99727985591573
H         4.93319634825086    0.46898159439202    4.88322619574542
H         3.83367402517254    1.54644959843414    4.01811402396687
C         2.21546588060347    2.19021178520103    6.13019398682113
H         1.75235173990701    2.40790322134505    5.16493687857781
H         1.41901978113237    1.95872171178160    6.84263248088328
C         4.11106945035575    3.73509951971315    5.62017027702239
H         4.66790199821225    4.61247414786914    5.95802749209014
H         3.68118973383374    3.96727654806648    4.64313178239404

