140
CSD_code = VOGFEF | q = 0 | S = 0 | Stoichiometry = C54H79O4PPdSi | MND = 4
Pd       -1.21097618978008    5.55577851451044   10.09483094035856
P        -0.21506317180129    6.52991340117262   11.87025120292976
Si       -4.18105329293246    0.82863682228596    5.68379406139317
O        -2.00638189447469    4.57157314785180    8.40749827268810
O        -2.60084171467632    3.28560416351047   10.11367253435201
O         1.39770781254122    5.96124583393508    8.60385531216008
O         0.57528658522766    2.31159883950825    3.60050983468887
C         0.39738034119177    4.25279624293469    9.87578619479917
H         1.12373772626594    4.37819848305405   10.68014777569194
H         0.01922531706206    3.23295521428755    9.81166602261329
C         0.83542627984833    4.85839797863918    8.62099972540890
C         0.64167742590520    4.12444439881001    7.34030260954517
C         0.53513719995209    4.85806795545388    6.15695829375381
H         0.50594958272862    5.93536630415638    6.21827841915033
C         0.48103500864623    4.22780820744393    4.93686594366792
H         0.39869666150192    4.78864591253444    4.01898463193628
C         0.56327871083809    2.83548910715122    4.85752303116695
C         0.64571114966215    2.09481095138051    6.03131031248175
H         0.69682623425210    1.01722413865031    6.00676896030650
C         0.67681646956988    2.73745575799013    7.25597155663792
H         0.76820143370204    2.13575114940156    8.14805347419397
C         0.82389205235446    0.93648502292527    3.44369188968134
H         0.86340920866085    0.76397811911549    2.36900113278901
H         1.78040254920590    0.64884042852304    3.89218445038579
H         0.02493605905839    0.32534121190859    3.87505094582481
C        -2.56165737054403    3.55258243592105    8.90628985193029
C        -3.15810950872985    2.65608670150646    7.92011435430464
C        -3.61535994155003    1.95629004658785    7.04760704772779
C        -3.92722814041249   -0.95605765667187    6.35072178126633
H        -4.28544895059770   -1.68743913923754    5.61860346413344
C        -2.45057771038838   -1.24363919769331    6.60827398224341
H        -1.87991016052779   -1.21606362063216    5.68286234259749
H        -2.03732382543719   -0.50439134606933    7.29093499769318
H        -2.32350043549913   -2.23029089583869    7.05318050538883
C        -4.71817388043241   -1.15736776283630    7.64105789795332
H        -5.78130164189030   -0.99775943239130    7.47941170235437
H        -4.58030530981835   -2.16807677096498    8.02446032963895
H        -4.38042316540546   -0.45488186060493    8.39924018054607
C        -6.05060262300502    1.14612839857169    5.35509026083685
H        -6.53277987341684    1.21899899856927    6.33607781020008
C        -6.29980068292009    2.46442009436899    4.62766358186840
H        -5.78436399699071    3.28311202727876    5.12257201750237
H        -5.94703060465640    2.40634834310050    3.60058706344969
H        -7.36574403703866    2.69228412426825    4.59935237227011
C        -6.72401299185973    0.00364502068889    4.59597700184842
H        -6.62980039853693   -0.93531677163680    5.13547775277775
H        -7.78576950321259    0.21168452319740    4.46293601551798
H        -6.28144004319737   -0.12274871923043    3.61058531508284
C        -2.97579630743393    1.19223045919414    4.23162524442151
H        -1.99478072285406    0.84396680742662    4.57033865827514
C        -3.31760234271535    0.43846997136810    2.94877985241409
H        -3.39617517202579   -0.63177711696706    3.13097711949774
H        -4.26281248543373    0.78743203569955    2.53848751499288
H        -2.54762275884388    0.60091388489674    2.19451914792688
C        -2.82774953568874    2.68498542634226    3.95055172909145
H        -2.57342777833676    3.21999109410365    4.86259225579993
H        -2.03501179903703    2.85529582181060    3.22353407805214
H        -3.74801435119026    3.10149047510751    3.55083497197991
C        -1.40270659861455    7.72792618681695   12.57713125553366
C        -1.07367941057311    8.61769780080632   13.59781363076066
H        -0.09268376596088    8.58754882153543   14.04571722840836
C        -1.98451401906844    9.55287751620255   14.05025191775991
H        -1.71171777878791   10.22886539189097   14.84696373682505
C        -3.23893085087477    9.62999944591342   13.46835566327190
H        -3.94901141514233   10.37192505179364   13.80205789611518
C        -3.57630235915033    8.75648317027656   12.45310480324727
H        -4.54689113873535    8.82193251686081   11.98218617196995
C        -2.67826044242316    7.78886856707515   12.00562355128691
C        -3.17268951488489    6.90142936360373   10.91217229247292
C        -4.15740159346558    5.93512628814428   11.21550278810895
C        -4.90829677383008    5.37533145036406   10.19410163153930
H        -5.64886605413423    4.63826187120228   10.45252971488398
C        -4.74641310517920    5.75073706713859    8.86780154482565
C        -3.77320810050139    6.69324946617298    8.56977502023209
H        -3.63922446181309    6.99409551994926    7.54066482442942
C        -2.97546427089489    7.27658534233178    9.55568695828451
C        -2.09570729821438    8.45857971167683    9.18688474603437
H        -1.49411043498493    8.73424929319506   10.06121036489398
C        -1.14202221237066    8.11293323448647    8.03983633851276
H        -0.43997056369585    8.92904382926482    7.87870262115063
H        -0.57587159733523    7.20279125209309    8.28011224219907
H        -1.68705211395020    7.94537756299590    7.11349015867197
C        -2.97404354279077    9.66084119628609    8.82683051144792
H        -2.35034215990539   10.51718564756857    8.57960560236281
H        -3.60582478644481    9.43516217309948    7.97106297464331
H        -3.61387980658223    9.93124663103524    9.66459468659792
C        -5.61721270193970    5.21710208569186    7.75434961391396
H        -4.95326483850627    4.93386179770110    6.92875480472375
C        -6.55384260765684    6.33020860416703    7.26880202446758
H        -7.16396086428786    5.97315839669247    6.44207052107435
H        -7.21430222937447    6.64219256625932    8.07595284139846
H        -5.99243008542178    7.19830129582006    6.93249069057235
C        -6.43736999201806    3.99120318936683    8.14616080677575
H        -6.96176916300164    3.61086725454498    7.27331010075757
H        -5.79160969983678    3.20306981879103    8.52484783187345
H        -7.18164092776868    4.24507142931094    8.89853673744208
C        -4.47193619990256    5.53558165391156   12.64085434224357
H        -3.69537903813085    5.94594623096151   13.29552111803259
C        -4.49725204151677    4.00901000271653   12.78422593514572
H        -3.72318900383337    3.55687185911401   12.16955301138721
H        -4.34468153582936    3.72251737133171   13.82268368817390
H        -5.45717898026398    3.60941526293897   12.46626718764964
C        -5.81335998799489    6.12525564883248   13.08875547917543
H        -6.05820447305186    5.76661302283989   14.08653626793786
H        -5.77478139005789    7.21152288625548   13.11697378009252
H        -6.60908920827626    5.82641015630838   12.41031693410572
C         1.36393419137667    7.52066129966349   11.85067028913227
H         1.50190881520801    7.93786447700601   12.85658793718028
C         2.59003042832866    6.68153002632782   11.49597247241366
H         2.45664725066548    6.27488550394280   10.49174042972317
H         2.71823278400343    5.85982967160973   12.20473830537429
C         1.22638949041785    8.66118507200430   10.84378691887469
H         1.08110561154911    8.22243138351861    9.85402963138937
H         0.35929074469064    9.28054823906310   11.09276432157265
C         3.84440073247973    7.55254553621701   11.50754419642176
H         3.99898428456666    7.96870050358773   12.50767009392433
H         4.71436661146083    6.94007439908980   11.26297629959829
C         2.48050640372703    9.53019190524261   10.83212584491100
H         2.36497580071368   10.33014573485412   10.09809956474564
H         2.61360099963119    9.99523120242763   11.81341488074199
C         3.70414970258016    8.68524425395462   10.49744621181840
H         3.58293552359216    8.25838013443805    9.50069848245096
H         4.60259610673887    9.30595291740622   10.49868212568827
C         0.08816827756287    5.27164623790059   13.21227012242424
H         0.98514103632779    4.72358588049301   12.89359545525566
C         0.33291268665548    5.80856152252138   14.62040473757166
H        -0.55387842316879    6.34044429813051   14.97290199736835
H         1.17799318648778    6.50049209545940   14.63192335566946
C         0.62884856144386    4.64414331600447   15.56664200642445
H         1.54492694310241    4.14228534280853   15.24558668575810
H         0.79527164191814    5.02675548181096   16.57614737647394
C        -0.52090301587362    3.64077353305988   15.57287320081171
H        -1.42074865152591    4.12656293368186   15.95788867032254
H        -0.28061288545942    2.80879240987647   16.23781551274490
C        -0.78935960479991    3.12550837505916   14.16126735061530
H        -1.63437915236962    2.43558883159033   14.16880378719481
H         0.08476279325025    2.57893794211171   13.80004860118616
C        -1.08592639350802    4.29364166705164   13.22719606084463
H        -1.29239650071641    3.92667164609866   12.20944141025559
H        -1.97129433718576    4.81752061601232   13.58963533934756

