49
CSD_code = VOGGAZ | q = 0 | S = 0 | Stoichiometry = C17H18BMoN9O3 | MND = 7
Mo        3.39363244439493    1.94956099784859    2.24739298880734
C         4.89037237699544    1.66263380046830    3.62027515418188
O         4.24173204628587    2.49882389472098    4.25105342127757
N         5.99714504624101    1.08842022277673    4.06154413606583
C         6.47025046599449    1.32868671725163    5.41358431334547
C         6.73837519779048    0.10884926397719    3.30590408962133
C         2.12234616690894    0.76974532499438    3.09135420131106
O         1.39921389261876    0.00308202049663    3.55781405257771
C         4.02290606715789    0.20861241145602    1.65677181109535
O         4.25189709604606   -0.89446646898215    1.40544911699975
N         2.45973854467493    2.00838762681874    0.36529166407670
N         2.33450507680664    3.15702170734042   -0.30994945960097
C         1.79594464183606    2.92080523967666   -1.51795418360300
C         1.55909761465100    1.56770234013054   -1.62527384854038
C         1.99152036787770    1.03848921754041   -0.41133413875103
N         4.74563818629828    3.36744738775636    1.32714513858270
N         4.31576468768387    4.36624776792529    0.54313122813715
C         5.35373052656564    5.11535010034308    0.13152854054475
C         6.50085648713758    4.57696673678562    0.66909972621575
C         6.06190137954436    3.48087245818165    1.41173531917244
N         2.25289573274964    3.68588754793076    2.56164664920580
N         2.14361931423795    4.66414629841195    1.66386122037960
C         1.49263754611788    5.70902953294278    2.20257894646090
C         1.15923273486941    5.37885337183795    3.49877148654035
C         1.65939914320676    4.08852359073160    3.67315021760869
N         2.41411249807698    5.63711811619415   -0.61841416397301
N         3.24878876558877    6.47082436783307   -1.25039308606488
C         2.50625160144925    7.30531093928185   -1.94635453539002
C         1.14358328779555    7.02207302974304   -1.77787145215654
C         1.12895879554557    5.94889834962121   -0.92275389134786
B         2.81759754139245    4.50133534168674    0.28761548682930
H         5.81326054943823    2.05740067507301    5.88538103304007
H         6.45461910213610    0.40007650622294    5.98791266430332
H         7.49072435692173    1.71708776726128    5.39261260828904
H         6.44815867316313    0.15085944331721    2.25863801146047
H         7.80682790090421    0.31892103607979    3.39048882287753
H         6.54915775307232   -0.89891117040281    3.68539583683505
H         1.61246325919969    3.70964102435591   -2.21903300878908
H         1.13498580604306    1.04332502761855   -2.45607199638143
H         1.97101856291567    0.01836981306268   -0.07225634211106
H         5.19012313728504    5.95800723317394   -0.50862771894769
H         7.50634385154223    4.92230334059635    0.54527306398319
H         6.64479203546540    2.78381993472971    1.98393982924510
H         1.30870249430513    6.60728397516829    1.64846690535166
H         0.63324051696160    5.98092920519473    4.21048596440518
H         1.61822350525470    3.45013984733046    4.53774938588783
H         2.96448707694933    8.07274136556208   -2.53838212180729
H         0.30723936029024    7.52721436155562   -2.21526308954870
H         0.30938678361277    5.38985136040372   -0.51580999771084

