91
CSD_code = VOGHIK | q = 0 | S = 0 | Stoichiometry = C33H52FN4Sc | MND = 5
Sc       14.11605013431565    4.59593008941213    4.52694108037074
F        12.71055475539396    4.02772733487444    3.52811382641547
N        15.69864829757302    3.69823536495035    3.43261099200643
N        15.03607480677860    6.46508474048693    3.93084291619164
N        12.54425700757237    6.34431751043269    5.30617682003756
N        13.82935430017076    3.80176476398708    6.38187805115469
C        18.01631582389024    3.39300277482430    2.64248564498520
H        18.79090883575163    3.27825484971337    3.40051106388605
H        18.46409335137111    3.89374266508984    1.78629822549772
H        17.66998903321770    2.40858660824989    2.33826626793301
C        16.88757131643003    4.22528740889887    3.21135033003558
C        17.20354642186532    5.56479912245901    3.46472052594974
H        18.24123316619520    5.82818376577147    3.31754327762258
C        16.33313489937458    6.62743555065978    3.72476942970040
C        16.94309955825741    8.00973944233454    3.69801292079874
H        16.53407606712891    8.59111050646334    2.87159391188104
H        18.02080155669178    7.95516527590261    3.57809907651239
H        16.72350874978939    8.54575529938925    4.62127808581798
C        14.21246330462352    7.65804585962475    4.00775605028952
H        14.29337126213570    8.25075522364124    3.08317817976706
H        14.53104395379746    8.30970756733883    4.83590639213749
C        12.74225195518728    7.27185844413801    4.18739900036075
H        12.14180942090610    8.18908674020769    4.32602456321071
H        12.40558168282445    6.76416090885622    3.27539710420089
C        15.36158642115092    2.46403740794507    2.81497919114900
C        15.41480333122309    1.25318592491287    3.52277276057436
C        15.11253613921783    0.07208218461457    2.85892125749090
H        15.16905260238334   -0.86580300980528    3.39023967741272
C        14.74839955864223    0.07545211937667    1.52651176471524
H        14.52654600870037   -0.85353347708369    1.02200444558118
C        14.65627731202097    1.27472246078487    0.84584112908638
H        14.35132146163878    1.27234462731656   -0.18991840114569
C        14.95620239208653    2.47726723939673    1.46797139604829
C        14.81507633450408    3.77618231979459    0.70429192729079
H        15.03412285217306    4.60898312689099    1.38524967903765
C        15.79634056238516    3.83597201645684   -0.46819968667088
H        15.58876291914089    3.04616632250352   -1.18626069748569
H        16.81906036344503    3.71957412558204   -0.11868737853382
H        15.71327141282961    4.79326304575535   -0.97899463978453
C        13.37431280007343    3.95223441604057    0.21840657820608
H        13.10068579926574    3.17956973610307   -0.49567302343214
H        13.25833565308672    4.92119718918927   -0.26409343226502
H        12.69551102694380    3.89849717733473    1.06517339762900
C        15.79203306250820    1.22227603297848    4.98673603516069
H        15.80685426926485    2.25800209784383    5.35765643429059
C        17.17961588329363    0.60779784472628    5.18654375885243
H        17.19790134869713   -0.41831722775973    4.82496935570679
H        17.43613743308942    0.60547458195637    6.24397744580147
H        17.93588578145303    1.17202791202420    4.64595666926710
C        14.75110530504171    0.45475028228053    5.80427609278210
H        13.75220127838337    0.80370854881428    5.55090161255453
H        14.91892223733372    0.62218951831873    6.86588205989604
H        14.80463175596705   -0.61426596707257    5.61085987854495
C        11.15343822474180    5.88796335488062    5.30285161475102
H        10.45750055129285    6.73509462629784    5.40150433703820
H        10.99316289500940    5.20698099252371    6.13764075963266
H        10.93729843746090    5.35602326080495    4.37789384403356
C        12.80037223847207    7.00738927253718    6.58427496004940
H        13.82852470609143    7.35931317401869    6.63251283504909
H        12.65312856796526    6.29439293244310    7.39486866114515
H        12.12231404954943    7.86215217570234    6.73268902398582
C        14.39499897991001    3.42807678102024    7.56435338676805
C        15.68455929753716    3.90402894089371    7.92700185359785
C        16.24679093814471    3.54104902511077    9.13676704639946
H        17.22520793021920    3.91661205870988    9.40120089444041
C        15.58490117896564    2.71629124680876   10.02584989247901
H        16.03725600994368    2.44551432449062   10.96828764670893
C        14.32578830038390    2.25119649529541    9.69174944876135
H        13.80638866519122    1.61977825388561   10.39621428248482
C        13.72423108732271    2.57434770183176    8.49037518295259
C        12.32356036908729    2.06533783715800    8.19958550434406
H        12.20779827365605    1.92734278851238    7.11682774024807
C        11.29729154594258    3.10440609563749    8.66742543775721
H        11.36202667638164    3.22969155298115    9.74652506383912
H        10.28530083669672    2.79296452652508    8.41288218187363
H        11.49296404053880    4.06998652058905    8.20414785386045
C        12.01345433939151    0.70747948223031    8.83187661581701
H        12.80695306984054   -0.00432729995916    8.61702809342553
H        11.08235618000760    0.31867737239643    8.42272861505486
H        11.89408160983268    0.78608738824112    9.90965261549796
C        16.45833274854087    4.84866202784960    7.03004360958650
H        15.89052218970123    4.98288002861460    6.08854077219084
C        17.83963913080995    4.29790161362265    6.66693235781534
H        18.33732800740363    4.96914740294886    5.96948654762183
H        17.74825528874621    3.31988953672208    6.20168396225708
H        18.46282843004488    4.19811778404445    7.55290438412884
C        16.60235772755646    6.22346630971131    7.69106077474356
H        15.62895346124063    6.60276347606189    7.99496632129025
H        17.05932558159165    6.93114452180680    7.00066029627140
H        17.22921541679003    6.15664122936149    8.57765507029958
H        12.90106005081951    3.37415879274444    6.31610148727848

