89
CSD_code = VOGHUW | q = 0 | S = 0 | Stoichiometry = C33H51N4Sc | MND = 5
Sc       12.41847736152229    7.92490623996712    4.12290933044981
N        13.66292244071997    9.26530639518538    3.08413000893770
N        12.62576072030379    6.63764772331247    2.35303355838340
N        11.46196713241906    5.73012687480945    4.79254138829138
N        10.58644770715936    8.78629885170573    3.70108514922286
C        15.53958133498475   10.01683990704287    1.68286605645107
H        15.27615350688641   10.53341452416108    0.76071108715061
H        16.47479090635056    9.48632468807402    1.51388304261810
H        15.68463768574207   10.75466686824127    2.46891989007343
C        14.44759993758482    9.03907135528155    2.05692292876962
C        14.33636264790792    7.90676267943557    1.24099480253855
H        15.01951221323823    7.88319449660718    0.40396171512026
C        13.48001365525800    6.80810334368819    1.35581379607411
C        13.58798643187243    5.77675011620901    0.25401676059211
H        13.86064584664175    4.80299982153943    0.66140962932775
H        14.33862411385747    6.06563697039851   -0.47500966855727
H        12.63387151685493    5.66603088291724   -0.26140999238100
C        11.80855868473262    5.43702535880957    2.32972364733040
H        12.44091858176489    4.53495478450484    2.35203123870496
H        11.20756317596592    5.38089412878210    1.40790054840633
C        10.83007976701222    5.39690199138174    3.50968527501997
H        10.03027952121498    6.12369739714963    3.33926972147795
H        10.37639476459170    4.39051828745664    3.55317381891254
C        12.43382188140097    4.69732157477101    5.15854077295170
H        12.82351057775621    4.90556122019181    6.15383511329855
H        13.26807454264117    4.69551364317736    4.45901713162543
H        11.96919922589935    3.69998428433230    5.16601125617760
C        10.42634317301334    5.76609338907051    5.82737064659244
H         9.93000712477050    4.78925770558687    5.92501294439891
H         9.67442426769738    6.51724446521680    5.58503306277031
H        10.88070712521202    6.02324455383366    6.78341634606614
C        13.77856030171782   10.42646206145584    3.88253405996678
C        14.40868522848292   10.31173197330507    5.14096493024768
C        14.45006176114127   11.42409287872515    5.96590834054773
H        14.92251327041228   11.36449705053007    6.93346935695932
C        13.89536510589983   12.62862955768322    5.56576315273371
H        13.93904153369431   13.48576425810523    6.22186361746206
C        13.28823349554452   12.73413802557752    4.33124434202070
H        12.85764110544766   13.67757097514444    4.03121960462106
C        13.22103369004043   11.64492954130456    3.47130762117882
C        12.51729699774868   11.77479612908824    2.13896706325676
H        12.63430426458672   10.83322115823312    1.59174052777563
C        13.11562501246884   12.90252460222998    1.29436185053863
H        12.92314207574379   13.87161728077826    1.74792011238884
H        12.67342124089530   12.90039540354975    0.29996881461224
H        14.19192627347638   12.78141853303889    1.19495377827925
C        11.01961805053929   12.00508790211318    2.35765749440809
H        10.59770697351273   11.18178000514766    2.93122739574626
H        10.50541237181729   12.06951588989707    1.40011986268809
H        10.84485572169192   12.92985600802882    2.90292992993935
C        15.00850904190226    8.97400419182803    5.52454880938009
H        15.58252287815999    8.61267655157875    4.65585260115594
C        13.88143757930700    7.94899010412041    5.82497174428940
H        13.48623010896844    8.22597621641578    6.82168958351384
H        14.39624832509335    6.98155637653995    5.98471063803853
C        15.99379913439303    9.06975618599700    6.69761569305764
H        16.76108158626787    9.81969425167087    6.51121177406249
H        16.48488398314802    8.10751973179853    6.83495200626030
H        15.47735364239437    9.31500420312340    7.62373559295285
C         9.32785496272117    8.73766933532673    4.21804284828776
C         8.17827873628692    8.43577984169931    3.43301425312707
C         6.92050948519486    8.49319125251640    4.00680454381330
H         6.04911125874078    8.29578607803523    3.39963668770743
C         6.74428196505610    8.80006456527226    5.34227901762140
H         5.75281619613377    8.84272389703139    5.76798586983815
C         7.85702989192013    9.05581674705577    6.12699648214042
H         7.71376034390010    9.29719874272619    7.16919228279058
C         9.13214094813668    9.02392528033251    5.60043471670994
C        10.33448636887108    9.35226895514856    6.45930064369749
H        11.19974992058752    8.78007987014135    6.05764257795637
C        10.16230094775867    8.98084947237617    7.93280200168840
H         9.49079518839833    9.67439731981415    8.43363575573422
H        11.12529532253974    9.02916024819658    8.43750911124229
H         9.76367708988255    7.97426732438650    8.04069659037883
C        10.67200726532916   10.84134616969934    6.33294409025382
H        10.89880999050746   11.08370787732184    5.29816013518386
H        11.54121361316580   11.08967633821361    6.93848660030437
H         9.82865408459028   11.44677879847597    6.66034060622898
C         8.29629180869556    8.08048484526458    1.96157815546831
H         9.32686846481773    7.77105070669927    1.73913596816226
C         7.97561947155069    9.30287536022844    1.09599460030586
H         6.95448293828304    9.63155983515260    1.27664462354965
H         8.08261942734838    9.06599048846203    0.03824868751933
H         8.64428102780607   10.12590056085072    1.33902300634654
C         7.40121584225463    6.90053491028786    1.56989631180839
H         6.35165833780167    7.18140560032417    1.57175757467452
H         7.53502603760207    6.06961678700260    2.26058037950268
H         7.65268184223012    6.56074002323687    0.56612934241920
H        10.52363289442850    8.77195119887885    2.67689523066359

