50
CSD_code = VOGHUU | q = 0 | S = 0 | Stoichiometry = C24H22ClOPZr | MND = 12
Zr        0.04856107035160    3.12881579671132    0.85896689237831
Cl       -0.65341829419380    1.03020139335640    1.66292586263358
P         1.23582494699012    1.61268751985451   -3.19464791104163
O         0.86039021036583    2.47964243919638   -0.69044810167210
C         0.92393499986176    4.31943271529989    2.90204917849654
C         1.63821079492878    4.82717029258584    1.78894053548104
C         2.43746994989856    3.78121608666205    1.27254815608754
C         2.19752611870835    2.62464717365114    2.04767995270017
C         1.26895653783686    2.96311813175651    3.05880518435085
C        -2.16225539657669    4.04820516433526    1.52158420721300
C        -1.40306768974385    5.17509307871952    1.13975751415589
C        -1.11471429983745    5.06544308999055   -0.23876507373183
C        -1.72935887723667    3.88443861923865   -0.72083564891498
C        -2.37818820562957    3.25968572753866    0.36655639148700
C        -0.53357323632542    1.19056424114604   -2.87551997398279
C        -0.96806314980405    0.58936728066530   -1.69599467301427
C        -2.32072520466346    0.37907629100891   -1.48695644541210
C        -3.24734717312572    0.76806179214331   -2.44177393653456
C        -2.81938381254508    1.36332717453018   -3.61707661141576
C        -1.46862425844308    1.57411989112785   -3.83235626014843
C         2.02227420164124    0.29849869603412   -2.17749419803767
C         2.99649803277282    0.59046234505073   -1.22825966700471
C         3.58225272702982   -0.42801162162480   -0.49770314640951
C         3.21929455190519   -1.74549115499190   -0.72063172391714
C         2.27718825378149   -2.04562427146404   -1.69087705155907
C         1.68628871920722   -1.03087633548776   -2.41957920112036
C         1.23934752699395    2.92860705311115   -1.86940308637206
C         1.59310469902391    4.19129270033188   -2.13132169132102
H         0.33797914878582    4.90319165130145    3.60243556408847
H         1.69276696668024    5.86864263127084    1.49146634021247
H         3.18974789890006    3.88063212919767    0.49843167700894
H         2.70338856370203    1.67107348042221    1.94570763330626
H         0.95765413678178    2.31632166992775    3.87069189079714
H        -2.62193453399965    3.88403270349057    2.49031046494956
H        -1.19929278307622    6.04217738525097    1.75575864396213
H        -0.66587741901746    5.83613357834478   -0.85309331739951
H        -1.79847011847864    3.58458625854994   -1.76001821558202
H        -3.01735129004364    2.38790097112433    0.30820157632660
H        -0.25549408582368    0.25615127461187   -0.95094361991102
H        -2.64344646669248   -0.09935906543953   -0.57306421449860
H        -4.30153159832991    0.60198693727024   -2.27402365835588
H        -3.53801370416701    1.66218287035325   -4.36653677356010
H        -1.12811579942112    2.03813591898701   -4.74827407517378
H         3.29679252833766    1.61669909181114   -1.05872262705234
H         4.32882370013936   -0.19270508226546    0.24776284945590
H         3.67324353897148   -2.53720846103388   -0.14314327519325
H         1.99986108690898   -3.07313894207720   -1.87651825090076
H         0.94628208517683   -1.26297069810777   -3.17413668825831
H         1.90056269840450    4.47758802340764   -3.12044174056795
H         1.59892170308997    4.94907436312171   -1.35511965703110

