38
CSD_code = VOGHUX | q = -1 | S = 0 | Stoichiometry = C6H15B11BrN2O2Pd(1-) | MND = 4
Pd        6.57207175497900    5.51065808010111    2.80650344709594
Br        4.98429383104206    0.55850220984844    6.65914552866581
O         6.93646084195492    4.60593459796373    1.00823350863418
O         6.94602327023987    2.79647323585084   -0.25207640492524
N         6.81371333754947    7.53359633105106    1.54488566806680
N         6.24709978164888    6.21661037254802    4.47903530596194
C         6.38031914677184    2.58117128275842    2.07937864586983
C         6.78104296023617    3.33393130966174    0.84151462316522
C         6.94683635817273    7.31381490290867    0.42280148445622
C         7.10841463992648    6.98213657967278   -0.96301554447205
H         7.15287196780486    5.89184120655004   -1.02260567207687
H         8.03189573211717    7.41063516450464   -1.35094951094557
H         6.25795230772180    7.34610121675348   -1.53853000169413
C         5.98552228910125    6.29886072894413    5.60289616246959
C         5.65446598441941    6.35430129785342    7.00117736362482
H         4.77741400810900    6.98223914870398    7.15944885007286
H         6.49187803519057    6.75355707066912    7.57377959465406
H         5.43689143018339    5.34206263809611    7.34386032150812
B         6.21115532143313    3.59412078652733    3.43642721803774
B         7.56555561249203    2.48519789089652    3.31756976754087
H         8.65686524089328    2.89359128250246    3.09829161282863
B         6.97135181032944    1.03871978000805    2.47288053477797
H         7.68176454149924    0.47839785330900    1.71621972299559
B         5.27158004306554    1.29266070106523    2.06826618727135
H         4.84449337646425    0.90401355750181    1.03982440458789
B         4.79655202330882    2.89843148395660    2.65916603393536
H         4.07904267309130    3.58716216461258    2.00954053155121
B         4.93516845728390    2.92605577228937    4.43344356678418
H         4.22318329725973    3.59071324879892    5.11238145583241
B         6.66997696519737    2.66789190432093    4.84722471951564
H         7.15926575005786    3.15061567489393    5.81480234682385
B         7.14362723524529    1.04799677184686    4.24312455109369
H         7.95906827590137    0.39239242591618    4.80057901570248
B         5.70640251137457    0.30383356836504    3.47120232189728
H         5.52416363845159   -0.86741078906288    3.50219153756779
B         4.34583444770068    1.46607425556717    3.57649267050850
H         3.22138438510739    1.10275623783394    3.67212509100850
B         5.51909671664899    1.32855805441243    4.90226333962310

