95
CSD_code = VOGLIO | q = 0 | S = 0 | Stoichiometry = C44H42Cl2O4P2Zn | MND = 4
Zn       11.66455921064836    4.36883084593158   13.54971716590531
Cl       10.19214836846476    2.82965536474071   14.04431480125523
Cl       11.84091966996347    4.75449197104814   11.17859423978207
O        13.57683801746499    3.22248787717423   13.23347474166920
O        13.44000838557611    5.25538087477816   14.03949218641800
O        10.45094464355671    5.96010214915090   13.59565671183776
O        10.89032580330216    8.04918350047236   14.27969108030251
C        14.05554938457345    4.33412846958677   13.46364990680665
C        15.42692196600815    4.69700952952415   12.86299710296557
H        16.13119505893772    3.87574507243546   12.98721888172964
H        15.80149099770206    5.58742327279038   13.37302930892378
C        15.12927947237131    4.95095556465983   11.37643633002223
H        14.03731101398923    5.03145843608089   11.23465585713140
P        15.78009095156040    6.56374275157546   10.82252786244405
C        15.62283189445769    3.82825587359319   10.47013262880977
H        15.12391372273385    2.90950994997731   10.77123401723270
H        16.70030144491486    3.68505148286231   10.55561183175902
H        15.36779701588048    4.02844924280806    9.42941591128279
C        15.27277255235906    7.92349074274451   11.88901348626885
C        14.06250977368304    7.85653932438901   12.57222023342608
H        13.44683642808548    6.97177971145137   12.53531389410121
C        13.65950900680314    8.92813210722291   13.35176373771897
H        12.73056717311413    8.84971034674296   13.90028756155274
C        14.44717517118271   10.06576959613028   13.42315722667629
H        14.13472407670975   10.89735969262026   14.03671713020841
C        15.63498503661108   10.14656523178046   12.70949552400766
H        16.24053070284021   11.03994762038341   12.75885023648316
C        16.05127945889020    9.08035244121587   11.93560091148908
H        16.97679743795491    9.13605111321429   11.37688272484566
C        15.11878336527680    6.97292977528720    9.18984136819346
C        15.86543360971416    7.77183147363162    8.32643954436635
H        16.86774389070319    8.07358769888701    8.59881468036124
C        15.32197122548186    8.17438295333899    7.12104913295909
H        15.90296921010103    8.78543638522501    6.44651097708860
C        14.03060507678179    7.79819883545760    6.78581566882103
H        13.60717097584581    8.11435149080086    5.84402952948473
C        13.28057946399605    7.02757647641937    7.65931853964472
H        12.27064844582272    6.74644138278840    7.40134885563421
C        13.81158736383685    6.61059426729226    8.86912055265228
H        13.20285811639091    6.01757145123250    9.54364151071175
C        17.58088302372645    6.44311159874340   10.77058942360217
C        18.32164504899096    6.74190492006739   11.91114228771016
H        17.82616175556340    7.13334676664794   12.78855477760708
C        19.69000766234558    6.53995224082154   11.91299389724550
H        20.26554136992004    6.77524616521206   12.79531840952644
C        20.31936775323652    6.03168872275926   10.78769366730839
H        21.38743385866366    5.87604374294538   10.79242218482659
C        19.57996437524756    5.71446699619866    9.65886228652617
H        20.07041669121002    5.30705262377753    8.78764006682638
C        18.21116994065827    5.91134896425819    9.64811259927577
H        17.62820407237011    5.65626714861507    8.77409473735513
C        10.30919278486243    7.20944027726680   13.61803817888506
C         9.20801127709267    7.70047948832824   12.59953505103293
H         9.07868708854982    8.77982484340680   12.68933594182778
H         8.27450532428237    7.20498101745297   12.88050955630385
C         9.66099371558899    7.30091271732707   11.19772081106579
H        10.29328981995661    6.39941950185001   11.26208790053051
P         8.22447097801265    6.77530110866956   10.19800520259404
C        10.45830434433207    8.39829395042827   10.50223222878025
H         9.87031162997584    9.31019792627372   10.39631747221154
H        10.80140593591686    8.07292708101081    9.52068259519216
H        11.33173247669723    8.62683279034304   11.10947700384886
C         8.72656616302024    6.27159123960239    8.53523888072205
C         7.92267316307965    6.52474676877521    7.42707859243241
H         7.01197465944573    7.09816089436384    7.53406366179897
C         8.29392242478242    6.03816032937357    6.18688372738557
H         7.67380167247702    6.23663488225094    5.32521723243893
C         9.45151910427172    5.28750519845942    6.05361027423169
H         9.73310236252919    4.90321803584194    5.08438005040913
C        10.23898232898183    5.02045108960773    7.16241396828558
H        11.13001350233864    4.41892771855592    7.06396233868564
C         9.88539011490167    5.50748058588433    8.40975236372663
H        10.50473896420320    5.28354681101794    9.27195860048908
C         7.05475984243576    8.14763625297846   10.09042950562274
C         5.97692002774850    8.20967241153569   10.96789909537688
H         5.79886734229286    7.39675249308975   11.65790768253589
C         5.13698339668231    9.30870224405145   10.94680631445144
H         4.29879794140419    9.35653177015372   11.62524873411986
C         5.37335587446035   10.34716811236655   10.06048438427706
H         4.71603980984414   11.20334095156627   10.04620773308124
C         6.45436324203263   10.29231630806258    9.19417936738106
H         6.64003573757781   11.10588627820186    8.50879218332310
C         7.29954881298226    9.19813760820742    9.20907903086364
H         8.14565010644507    9.14988270921850    8.53720736274063
C         7.40163110599453    5.33839735970125   10.90389322256970
C         7.96816553979664    4.59277134220789   11.93008352535414
H         8.89386799506255    4.88609983908961   12.40292920889704
C         7.32581566518857    3.44656676431276   12.37107937839205
H         7.79417516733109    2.87203185779062   13.15671003136704
C         6.13198093273938    3.05241444220228   11.79157876977303
H         5.63540384087168    2.15793401232778   12.13671642819689
C         5.56887654132457    3.79684491722996   10.76285353435402
H         4.63875064182454    3.48429606963280   10.31065766599970
C         6.20396550413761    4.93521388644751   10.30897736284789
H         5.78179496250036    5.51847587745474    9.49936991405689

