52
CSD_code = VOGLUA | q = 0 | S = 0 | Stoichiometry = C22H23Cl2O3PZn | MND = 4
Zn        5.61068858470052    5.90095412681276    6.43737141570638
Cl        5.00015063398117    7.39364262327164    7.93788985884943
O         3.99414984733047    5.87212399790338    5.00634601760568
H         3.16284868924254    6.25137337834343    5.30815222286196
H         3.85961985800880    4.89307619540622    4.95281496774358
C         4.60056263892083    3.06842172171981    6.52667013940134
Cl        7.46738491700616    5.37357556265550    5.43369464546997
O         5.05043730447111    3.98368801884753    7.30761035933487
C         4.87962386470519    1.64462406201978    7.01504901213420
H         3.90960859602310    1.19851115550339    7.26337553241714
O         3.98341463722272    3.27170723405072    5.49484048449368
C         5.52349938536593    0.83919715991141    5.88865182586330
H         4.86981470412673    0.84620817229474    5.02046022898980
H         5.69123092525144   -0.18984495033512    6.19913017216759
H         6.47449290049874    1.28302322224636    5.60117395409716
C         5.76598319554339    1.72673459808076    8.25038710743848
H         6.80758660108590    1.87615681736837    7.94569108130179
H         5.70669245483685    0.81982618787050    8.85667830351021
P         5.31703634192485    3.16470790750582    9.30717242336274
C         3.53752968750194    3.48057929953857    9.39784292730302
C         3.00721604938564    4.75795153566956    9.27337497013364
H         3.65796740011801    5.60646702142485    9.11459834795096
C         1.63397291612732    4.92653588704701    9.33155499305656
H         1.21805346477586    5.91796150165564    9.23524798271175
C         0.79939170340223    3.83430751907283    9.50491452631194
H        -0.27087293271616    3.97254653986679    9.54153419278451
C         1.33360567254031    2.56118615689963    9.63137817631632
H         0.68298372697910    1.71001233645431    9.76752223567371
C         2.70363530761659    2.38139806900374    9.58364379710908
H         3.13297419160874    1.39433693827469    9.69956355642051
C         5.65131946124684    2.44315401025709   10.97441661596506
C         6.91757379971544    1.89727016492618   11.17105357081707
H         7.61977913867918    1.87849055701042   10.34732041376863
C         7.28592424181680    1.39434173736465   12.40373439348440
H         8.26937159019374    0.97055916437560   12.54274234145901
C         6.39262953760938    1.44188784354696   13.46259446091940
H         6.67715032861354    1.05030988013672   14.42754724050251
C         5.13954866451088    2.00081269991234   13.28260694558179
H         4.44521640965946    2.04979177067452   14.10835210042061
C         4.77092465546311    2.50436298959026   12.04621690814501
H         3.79201621602648    2.94388340635458   11.91734978136710
C         6.43251372440433    4.57741340168065    9.47368791597681
C         6.15208781608774    5.48162384747376   10.49242932855446
H         5.28321431137068    5.33255806205643   11.11946421127396
C         6.97614014428092    6.57486646619839   10.67776051034121
H         6.74632867247657    7.29521644371694   11.44795547516704
C         8.08465245230712    6.75297467329387    9.86516122866160
H         8.71857862184416    7.61587210547941   10.00302511078903
C         8.37875131398309    5.83281918680369    8.87267444675870
H         9.24119882192484    5.96833658222626    8.23797685159707
C         7.55381176334833    4.73853106063850    8.67171475578988
H         7.78338504684912    4.02853394990549    7.89087993413605

