61
CSD_code = VOGLIM | q = 0 | S = 0 | Stoichiometry = C33H19BCuN6P | MND = 4
Cu       10.83678618617886    8.68119240731968    9.99007503433679
P        13.94381603634976    7.09527748691196    9.91501724435964
N        10.37655931338427    6.98221805097023    8.89209743255598
N        10.31612359165774    7.35232944680280   11.36653437417341
N        11.47521918476945   10.32120049137912    9.40970101391210
N         9.11623284609145    6.50954629773989    8.97083008771626
N         9.05341744185655    6.86469307388357   11.36372301894064
N         8.51724632123357    8.73752206007421    9.88640379293843
B         8.26582130876282    7.29804111430631   10.06364976364594
C        12.47083823751219    6.15189463663000    9.66335175501890
C        11.23807221012180    5.94609603867346    8.90525506435952
C        10.52071345992392    4.74910946536876    8.82527785874271
C         9.17888499916077    5.13312299454016    8.95551148928118
C         8.29430437479095    4.49989494633097    9.85268110236492
C         9.74651591166994   11.94933454257781    8.65564276591011
C        10.67807896242552   11.13016667586153    9.05077259758031
C         8.43474646024294   12.19122284633017    8.51332400234827
C         8.18141143533381    9.79394861356637    9.40640715739871
C         7.99791383437309   10.97325739221686    8.95714453234923
C        12.48088808964759    6.39856136607163   11.04084407577475
C        11.17018914213012    6.36323186990200   11.70178230285872
C        10.43872517791766    5.24273621889109   12.09967048909498
C         9.10936632602949    5.55941645766006   11.78729998262864
C         8.25249901654553    4.68224184159480   11.08487810945346
C        14.47994477198469    7.42005156491984    8.16942139934966
C        13.59850671314902    8.21355379633547    7.43599801525096
C        13.76312386653452    8.36535219434307    6.07375087223369
C        14.79890525199000    7.70728652464607    5.42681522828182
C        15.65836726588807    6.89372501587539    6.14486932966661
C        15.49500630751783    6.73895730247211    7.51165249147515
C        13.99527351990891    8.80204101120335   10.57998641310433
C        13.29538707665059    9.11407130330150   11.74001080464170
C        13.33477789991307   10.39677568941871   12.25476767359706
C        14.08010723528183   11.37606520222127   11.62008256465031
C        14.79890248818755   11.06465448338818   10.47841145020344
C        14.76044329869277    9.78385639319524    9.95884830379211
C        15.31942411479038    6.16908393751501   10.62316887733965
C        15.14289970909217    4.89884627679038   11.15102828877888
C        16.22374111043029    4.22743037408347   11.69217050596240
C        17.47233277264943    4.82953323513126   11.72025252077829
C        17.64442068636483    6.10479516324841   11.20577699004639
C        16.56939255356522    6.77728502547283   10.65340770843047
H        10.90666955350534    3.75098498598375    8.81391959796841
H         7.89694013810700   13.03988513373140    8.14606920948382
H        10.81476929301068    4.29594291322574   12.42731872316028
H        12.78889329964695    8.71664430883611    7.95671723332921
H        13.08233490097107    8.98949134208197    5.51331705471650
H        14.92894384824024    7.82152868630290    4.36055274660100
H        16.45761899154414    6.37150785651603    5.63861022362088
H        16.16454055675797    6.09814449835192    8.06945998797850
H        12.72638278420694    8.34555900938679   12.24157687545541
H        12.77834223967867   10.63298177246908   13.14969157936373
H        14.10175959510692   12.38115435829402   12.01482669362903
H        15.38657702049749   11.82471422701590    9.98425938462669
H        15.31390697561550    9.55273682781875    9.05934559463705
H        14.15717096894222    4.45624163822325   11.13273704104666
H        16.09496279279067    3.23399855636390   12.09594762366313
H        18.31353843771234    4.30430758454134   12.14795361233234
H        18.61709511991338    6.57368538038998   11.23555092848820
H        16.68933098223545    7.77115592730167   10.24327676287254
H         7.12089599082005    7.01501416399780   10.07417464170104

