65
CSD_code = VOGNEL | q = 0 | S = 0 | Stoichiometry = C24H36NiO2P2 | MND = 4
Ni        6.29385046251573    2.06792512908947   12.10297741352788
P         7.11913622903016    3.81557530384068   13.11464951708975
P         5.17426559472164    2.83332637406013   10.39468070121901
O         7.77672904510931    3.15183086866078   14.43812704702189
O         4.74133639826641    1.46450605308093    9.64401314233945
C         7.33302622661058    1.86205540855805   14.72466047860659
C         7.60701057128707    1.37721821846834   15.99174642525073
C         7.11902762382343    0.13854472374436   16.36740511014476
C         6.34607528926356   -0.58144824521187   15.47693316535444
C         6.10011252595472   -0.09395025545038   14.20123109778429
C         6.60645056763773    1.13475941719387   13.76863729687896
C         6.50590800786420    5.39177563947989   13.89126838093426
C         5.27989457329352    5.03615499144526   14.72781987697921
C         6.17126141426970    6.45594262977854   12.85779272014289
C         8.65406745993768    4.30564288486998   12.18092685355067
C         9.24826824470637    2.99416227243368   11.66559037387970
C         9.65857448424098    5.07919021399197   13.02400435229521
C         5.47166888481876    0.33909862657288   10.02245741406260
C         5.38210547013298   -0.76817888403786    9.19698409955814
C         6.15044113642840   -1.88554074567920    9.47061597528577
C         7.01187647476313   -1.86536536595348   10.55060910800709
C         7.07324499651167   -0.75747607902822   11.38392439966540
C         6.28568593270779    0.37619445147795   11.16559333580354
C         3.52319923707665    3.40405696274682   11.03915966449186
C         3.18516341459373    2.44670302088086   12.18279218366985
C         2.42794918172202    3.41904174446776    9.98161579069108
C         5.48674520299161    3.87399911821935    8.88374201287486
C         5.54787254493634    5.35876105332932    9.20683236005165
C         6.79721294694874    3.39289344206696    8.26668732546697
H         8.18751485003384    1.98369864563327   16.67139692202174
H         7.33019671501740   -0.24779737462853   17.35349717554581
H         5.93348763377526   -1.53680387310632   15.76773086189498
H         5.50021122292411   -0.69619829454158   13.53265642638114
H         7.30468159100084    5.74096083897105   14.55566460188467
H         4.92311018672392    5.90390744941381   15.28079188412365
H         5.51886703453434    4.24851527191055   15.44141598358939
H         4.47382352257501    4.68169938429905   14.08628211019881
H         5.41606774476679    6.08484629090061   12.16704186641428
H         5.77551122427557    7.34492326882872   13.34742914681513
H         7.05002539923496    6.74754978548598   12.28630182509925
H         8.33616582071665    4.91330635465543   11.32606124457829
H         9.66445417544125    2.42420020484268   12.49536890197039
H         8.46809755781678    2.37654292697390   11.19215471761692
H        10.03870524779420    3.17233342846726   10.93759040378763
H         9.85738172435807    4.54404807715087   13.95041275302801
H         9.29440524910231    6.07485472044089   13.26763230590383
H        10.59703812328433    5.18438025327314   12.48080163426743
H         4.72193666021746   -0.73398998547808    8.34274693184254
H         6.08528420210851   -2.75430652640670    8.83246198478984
H         7.64004348749090   -2.71971868478054   10.75791295601825
H         7.75212819403671   -0.78940125854912   12.22515868172434
H         3.66308865102140    4.41158494160755   11.44720056389364
H         2.93767653843108    1.46421008447314   11.78277658386110
H         4.05039840583284    2.32705174662507   12.85463418665954
H         2.33888613803573    2.80534980776888   12.76744180770609
H         2.39893602260833    2.46320377541915    9.46221694396833
H         2.58772163478979    4.20888512294767    9.25076266917610
H         1.45908621314610    3.58290719572489   10.45216902550023
H         4.66523866506074    3.66667890866801    8.18842539939945
H         6.33039166752759    5.55180270817012    9.93868992867768
H         4.60241412442833    5.71915752856020    9.60724682756891
H         5.77532274239390    5.93089696389759    8.30815994629214
H         7.62788286610322    3.58563175753482    8.94484172533657
H         6.75809953286965    2.32181428641573    8.07149373060331
H         6.99435908835694    3.90627529533561    7.32665171923240

