69
CSD_code = VOGNIP | q = 0 | S = 0 | Stoichiometry = C26H36NiO4P2 | MND = 4
Ni        2.69185092693153    1.26997759145614    4.51597897345587
P         4.62947037903133    0.55776898266970    3.57234290591396
P         0.93760403865130    0.06128643336608    3.69305363275561
O         2.70173592430032    0.60217414169074    7.38677662907602
O         2.70163223087632    4.09601598145233    3.74120502961348
O         4.80204510669466    0.92138273818259    1.99069961024628
O         0.77952452115660   -0.71398216984631    2.25969944387371
C         2.75983514606317    0.74885317156865    0.73112954199212
C         2.59109130646961    2.98443903290230    4.00172523104770
C         2.71889763456608   -3.50543396159981    0.92402968166996
H         2.68893781494809   -4.58457492306224    0.93952919739245
C         2.75913638417625   -0.72059949199637    0.87211079682150
C         2.83343365894398    3.49309927285140    0.28113098546432
H         2.86627265738771    4.55890714222859    0.11334941098654
C        -0.62926872436684    1.04221973999289    3.53238050321960
H        -1.42631313331282    0.34756226619203    3.24875276781153
C         6.17798889571105    1.36280845215490    4.25471411366699
H         7.02697518270824    0.70539448240426    4.04200273345039
C         5.12375481714618   -1.24547525518835    3.50035084866532
H         4.22866308623981   -1.74631014561253    3.10801603911662
C         3.78972183756471    1.52208932784090    1.26852042796396
C        -0.47520558404069    2.08331834383773    2.43144297527596
H        -0.32067427915129    1.60190817754668    1.46998448090689
H         0.38141516900492    2.72583484369169    2.63352495693499
H        -1.36676201944374    2.70572249379637    2.36981267837931
C        -0.87460595013891   -2.00090797367023    4.50310249155774
H        -1.75460013285287   -1.37801105511196    4.64173622558254
H        -0.99575643832382   -2.89224635453968    5.11747112641389
H        -0.83169446885640   -2.30800064016618    3.46002378491229
C         3.82113224449559    2.89017355211237    1.03913962066544
H         4.62436460441057    3.47500728722487    1.45902500124599
C         1.77577157650577   -1.39380043304060    1.59907761129229
C         2.71313664627448    0.86066695461942    6.27063961820532
C         1.75364973334901   -2.78404146548622    1.60149238697310
H         0.96207751934738   -3.29294021194631    2.13103819590859
C         6.42487371643124    2.71499846047677    3.59700903180191
H         6.61078803598861    2.60077565834532    2.53163804044179
H         7.29294125533520    3.19509601379321    4.04690843519112
H         5.56337694183937    3.36572068723834    3.74281613541742
C        -0.94286467888958    1.70979000239853    4.86489038188919
H        -1.24439665464350    0.98499266911176    5.61766449947010
H        -1.74830295772768    2.43301109392472    4.74761105342432
H        -0.05871106365488    2.23746499359053    5.22873858542564
C         1.77671851011342    1.36906548668648   -0.03105870057947
H         0.99414394950986    0.76101738139309   -0.46226835721210
C         3.72511998134116   -1.46159145663158    0.19837609035352
H         4.47670769359570   -0.93351979859655   -0.37019954415302
C         6.28230864785363   -1.52353387161196    2.55040384567657
H         6.11642806336039   -1.04870095272125    1.58791856163197
H         6.37428639453175   -2.59695835482969    2.39287446848462
H         7.22330546534753   -1.16107431856835    2.95770539754051
C         0.39966419606843   -1.26776269372022    4.90339592789499
H         0.23824358882625   -0.73390598433653    5.84671974151763
C         3.71750721836721   -2.84291152234409    0.23092128605349
H         4.47783623375341   -3.40048832766511   -0.29446200464766
C         6.03187221845089    1.54224878879491    5.76139287434762
H         5.87027311248093    0.59343271343782    6.26647616889374
H         5.17918715090207    2.18953984720007    5.97183305669561
H         6.92597643271817    2.00504159340073    6.17710581136029
C         5.41340013408251   -1.79221420067593    4.89295701625783
H         4.65757705973198   -1.46368836025323    5.60490505279205
H         6.38663582656332   -1.45663453037083    5.24467996683658
H         5.41674266658116   -2.88093236548478    4.87658503067587
C         1.80706615576224    2.73358471062829   -0.25202229517479
H         1.03316866630685    3.20221893002650   -0.84101149481624
C         1.55728005819163   -2.24006641359478    5.11326152813397
H         2.47269995931875   -1.68466265179500    5.31611586541929
H         1.72218477158610   -2.85293019836792    4.22998075794599
H         1.35942293750812   -2.89900935739519    5.95772812655125

