71
CSD_code = VOGNOV | q = 0 | S = 0 | Stoichiometry = C27H36NiO5P2 | MND = 4
Ni       11.30375681505894    1.54970808439861    4.60060021424415
P        11.64294246222917    2.87088773529406    2.80636486628163
P         9.07929527039117    1.28797168961486    5.09649497062409
O        11.42151238182030    2.34773005592790    1.26617673474311
O         7.95545111353005    0.78603339380494    4.01366513367831
O         9.65484462722337   -1.07846534547179    2.75865298218035
O        12.53485753807553   -1.01861287614470    3.85334723018153
O        12.79654238287243    3.09319307756687    6.60409987168278
C        11.76254308193927    1.09803146268674    0.80982013256644
C        12.81919670155626    1.01144816159520   -0.09247879193879
H        13.31314529314886    1.92135855127382   -0.39878223250624
C        13.23551633221863   -0.20882075776105   -0.58937959194311
H        14.05600072296670   -0.24814003264776   -1.29000872864583
C        12.61494442432408   -1.37425646957954   -0.16927347797448
H        12.95372976445224   -2.33367652153841   -0.52813674157721
C        11.55248710723948   -1.29614086893086    0.70617106932907
H        11.04146051763772   -2.18778974847175    1.03815400639136
C        11.08858772405929   -0.06893821768890    1.18415817412999
C         9.85966498275300   -0.13291342510126    2.02498810329531
C         8.79432677422997    0.86081094684380    1.74037921634584
C         8.59274791025313    1.29265668014362    0.42999809461503
H         9.29735422560552    0.99799181418131   -0.33416498031007
C         7.49164606325376    2.05570551263609    0.09320570457932
H         7.34658649176002    2.37199736081340   -0.92856597122539
C         6.57078712709306    2.40258796486404    1.06907692376431
H         5.70366995975629    2.99234297977347    0.81281395500237
C         6.76094128002166    1.99454570978468    2.37531965531071
H         6.04989783669028    2.25765408637590    3.14385428136260
C         7.85991120417127    1.21512958579799    2.72358284853294
C        13.45076041719638    3.38359212583113    2.80624173519642
H        13.58306290607473    3.93236971340104    3.74556296277871
C        13.85232618228332    4.27651901966452    1.63662343133292
H        13.51278907278838    5.29949733902001    1.77858381667083
H        13.43947965289196    3.90287781909688    0.70197749764806
H        14.93740388926747    4.29607841866780    1.54501507582119
C        14.33160720003617    2.13789910747519    2.87810335483988
H        14.03831670230917    1.51894431190471    3.72747915741029
H        15.37581009846199    2.41867734995840    3.01011837790511
H        14.24774378607162    1.54049543863007    1.97200155915536
C        10.83920151669827    4.51959150915232    2.51494124907531
H        11.31175438462583    4.95566439649173    1.62997412089836
C         9.35587744869281    4.33771598514255    2.23020095462342
H         9.20700224884294    3.76411817776478    1.31967354800816
H         8.86833899755169    5.30483511593219    2.11486390027627
H         8.87941129338221    3.80632898275591    3.05171298749633
C        11.04936636462100    5.41348515694998    3.72915001189073
H        12.09907718131741    5.65935151867257    3.87201769628758
H        10.68899934875998    4.91007795825341    4.62510539639375
H        10.49486109567347    6.34372929191443    3.61417561976356
C         8.73944189495572   -0.05634762404088    6.32743254832487
H         7.65258510881382   -0.11308855954356    6.44662402357791
C         9.24497314451198   -1.39047032177554    5.79414771167832
H         8.84460878615128   -1.59309391325287    4.80536990838953
H         8.95403756836910   -2.19780968960227    6.46495067673968
H        10.33163005938305   -1.37583189299508    5.72433908144648
C         9.41726985218292    0.26139148212188    7.65454981912993
H         8.92371579263998    1.07389575362093    8.18102365194819
H        10.45713526390011    0.54123226828425    7.47871568173536
H         9.40503319415738   -0.61533419471575    8.30038974106322
C         8.11917991576177    2.76258807879511    5.77289530643107
H         7.95130931369317    3.36418511881580    4.86662951914308
C         8.93018966429674    3.61065750466319    6.74170853566994
H         9.95283520433239    3.71945620198983    6.38232962754956
H         8.96880525405306    3.15892588352458    7.72896600434567
H         8.48987135347038    4.60218369632670    6.83973665859234
C         6.75483685707441    2.39971548971829    6.34682602015319
H         6.22511103166847    1.71558670657692    5.68664933595191
H         6.15266728474182    3.30067624099971    6.46212952463136
H         6.85057083771630    1.93471712867561    7.32488256437413
C        11.97834019434935   -0.07091282941589    4.16687543070976
C        12.11991451989691    2.47209814450462    5.91767252222279

