59
CSD_code = VOGPAK | q = 0 | S = 0 | Stoichiometry = C20H35ClP2Pd | MND = 4
C        10.22448616028941    7.16017131680637    5.81293623375833
C        11.19786800858764    6.46112242098775    5.63675087901099
C        12.33556532614206    5.64173199468097    5.43268770337894
C        13.34922383664375    5.58244225674189    6.39091367817794
H        13.25723087554406    6.16921667124535    7.29444839305215
C        14.45469373914044    4.78044325057106    6.18651250384087
H        15.23453896547763    4.74024594715929    6.93433739340664
C        14.56864378124554    4.02813531990411    5.02820540061614
H        15.43486331251827    3.40172066860438    4.87162294236815
C        13.56726943292208    4.08199711739147    4.07165425849989
H        13.65357825375966    3.49613074353706    3.16703715103376
C        12.45809790500844    4.88054640635448    4.26866899810010
H        11.67606619771028    4.92581492494020    3.52331337211338
C         9.57609314431314   11.61982901351732    6.09964400254328
H         8.50920121151960   11.82844820656621    6.22121219844631
H        10.14699576550685   12.40603193260156    6.59937295878652
C         9.91703142056311   11.51673542852442    4.61694408079271
H        10.98724937833907   11.38360833269090    4.46666357218797
H         9.59820278177014   12.40643104426284    4.07771883135734
H         9.40305407040629   10.64863855570413    4.18957039202295
C        11.71129235440166    9.82138197905848    6.97051348966069
H        11.90063968252144    8.98730826674083    7.65312402716979
H        12.04137231842617    9.49186859340665    5.98113700857084
C        12.48317589520689   11.05822337447237    7.40866752514968
H        12.42106391034118   11.84575907858589    6.66165704162395
H        13.53387455697800   10.80733931115351    7.54251098769641
H        12.10846380317136   11.44837171983365    8.35276055801506
C         9.36849852435484   10.23202922945457    8.64479808526894
H        10.10370391576551   10.82712050592114    9.19295910160888
H         8.41526815736071   10.76838768556309    8.63494619005242
C         9.18094850568954    8.85436700754514    9.27667732044172
H         8.45891930870523    8.27859849152130    8.67420685288601
H         8.79722738726248    8.93397890069498   10.29227123004741
H        10.12236416217750    8.30414495378742    9.30081820918647
C         6.52523319882084    7.32020184348571    3.71759885036932
H         6.05905956180821    6.51902194302163    3.13812445448722
H         5.75591100479444    8.04337800933245    4.00368881142682
C         7.62451124132935    8.02074890391121    2.92186066237277
H         8.10380229623843    8.78062656302557    3.56192156570760
H         7.22021707876298    8.51571963163157    2.04063092558001
H         8.38929232774587    7.31167092062040    2.60376837170546
C         5.82793764273262    6.28827364626853    6.34423385334482
H         5.29097156138874    7.23011202281443    6.49064505205118
H         5.15985881364491    5.57636820622510    5.85354002894341
C         6.33712836238821    5.76802603959215    7.68440432158786
H         6.79422844269887    4.78551222728700    7.57808298673350
H         5.53033546331895    5.69879263382679    8.41118266904000
H         7.09685001093982    6.45549881527857    8.07270371708679
C         7.97399927111357    5.04041926518372    4.80066066122722
H         8.67483489176256    5.24559322526221    3.98588053598163
H         8.57690728064177    4.70075112575096    5.64774719064246
C         6.97426639835270    3.96817586951721    4.39058144081608
H         6.35809890862769    3.66176972924088    5.23236762711249
H         7.50610223813088    3.08993060369026    4.02900180231972
H         6.32060767064903    4.31649040011763    3.59356271921499
Cl        6.78338901516527    9.60904269712713    6.35951038621446
P         9.87426736515900    9.98943406314159    6.89081857179142
P         7.26913072354615    6.67954255482602    5.27494620839560
Pd        8.64139318046205    8.28647840931841    6.06947401497606

