69
CSD_code = VOGPOZ | q = 0 | S = 0 | Stoichiometry = C32H28Cl4N2O2Zn | MND = 4
Zn       -5.02745501481692    1.08742089819292   12.63663813601887
Cl        1.70493867753629    1.23220553641592   15.01403944416463
Cl       -2.93722946708730   -1.28868148787794   16.01034665105032
O        -3.90755629773094    0.20727117247518   13.78039089243858
N        -3.63191790047395    2.13607836618938   11.72239884307598
C        -2.67143068491190    0.47295756009922   13.99535524961517
C        -0.53570030628363    1.60493207361551   13.56690505387626
C        -2.00383757164007   -0.18308653138482   15.07401342733063
C         0.04674119579192    0.94866184386350   14.61854798751655
C        -0.68915942381573    0.04226262262874   15.38763737811642
C        -4.96523705198472    2.65567282013074    8.26174596195379
C        -2.41170370493065    2.11973447313164   12.12696984301064
C        -1.88971711338230    1.39405087578025   13.23800453030198
C        -4.25192354299698    1.90739677074108    9.36040670493607
C        -6.32834913824338    4.03435969392813    6.25667090134146
C        -6.31592833717834    2.42420760726325    8.03335188117635
C        -2.97446787811118    1.22540187029734    8.87518422143403
C        -4.30965146495544    3.59795643253453    7.47850977017828
C        -3.95639635518034    2.87370126356453   10.52710572343433
C        -6.99350485622433    3.10541994875559    7.03783059276551
C        -4.98469947709291    4.27974677165021    6.48172116556106
H        -0.22945799414676   -0.47170458165615   16.21655742900061
H         0.04367893063774    2.30210767458909   12.98075545076292
H        -4.85635149991306    3.46350002603157   10.72524038650519
H        -3.13858862299246    3.55092518271958   10.24928705499372
H        -4.92353283908114    1.13322823384895    9.74189675619250
H        -2.53285957679623    0.64146076744370    9.68047735375487
H        -2.24102022579904    1.95025316002683    8.52870019702779
H        -3.20671754744478    0.55300682860203    8.05320668974053
H        -6.84213994868847    1.70043412367630    8.63853575802227
H        -1.67793168560069    2.72526558859601   11.58383732023698
H        -3.26185433741942    3.80339971037842    7.64102967346958
H        -6.85354887321719    4.56504336565024    5.47652499640073
H        -8.04231340246988    2.90796917354736    6.87227411993831
H        -4.45936312455932    5.00532271349282    5.87782862746801
Cl      -11.75986454697505    1.23219670348715   10.25926866405114
Cl       -7.11769492427458   -1.28867553450822    9.26292924828561
O        -6.14735793692095    0.20727995550119   11.49287524784987
N        -6.42299207844844    2.13607601858262   13.55087498448640
C        -7.38348439538905    0.47296597166621   11.27791790352926
C        -9.51921793167379    1.60492638260932   11.70638903410787
C        -8.05108813880936   -0.18309328784680   10.19927613088909
C       -10.10166329261669    0.94865799849258   10.65474749123664
C        -9.36576769440816    0.04225489302471    9.88565789571663
C        -5.08969031752854    2.65560024056651   17.01159873644485
C        -7.64321223899878    2.11971593141782   13.14632415380141
C        -8.16520003032964    1.39404523332794   12.03528292023502
C        -5.80297834431081    1.90739853506784   15.91287229374730
C        -3.72650695385210    4.03447190015610   19.01650548385274
C        -3.73898530538643    2.42416911971027   17.23995472489605
C        -7.08042645989609    1.22541342175907   16.39811304339294
C        -5.74526438962143    3.59791313395798   17.79481079238311
C        -6.09850597054307    2.87369839951827   14.74616655899059
C        -3.06136779449810    3.10548884742477   18.23538109101030
C        -5.07017797960049    4.27980386795843   18.79151175270252
H        -9.82546804161688   -0.47170235787100    9.05673098157161
H       -10.09859724867065    2.30209440115028   12.29254735771380
H        -5.19855490667929    3.46350191550307   14.54802906745702
H        -6.91631442916393    3.55091711540392   15.02399397532088
H        -5.13137113850226    1.13322565145345   15.53138974695680
H        -7.52201964946463    0.64147889442108   15.59280986543875
H        -7.81388099260355    1.95026130715357   16.74459155368393
H        -6.84818211839692    0.55300966851199   17.22008598701885
H        -3.21276188433049    1.70044826927695   16.63471737828688
H        -8.37697184077026    2.72527984628753   13.68943643979020
H        -6.79305205802975    3.80338561434996   17.63226337050584
H        -3.20136037953119    4.56498291232821   19.79680019265241
H        -2.01258888946391    2.90795026981441   18.40101652897467
H        -5.59554323751107    5.00527621139598   19.39550323023622

