67
CSD_code = VOGQEO | q = 0 | S = 0 | Stoichiometry = C32H31BrP2Ru | MND = 8
Ru        1.49053148944787    8.80519831972176    1.98437038950591
Br        0.81215346957332    9.78004400751766   -0.23313339405620
P         2.83123981746026   10.54675494250730    2.50540382623856
P         3.29911724172535    8.09189897490490    0.84823802403481
C         1.03390183100473    6.94985801418022    3.12914355760210
C         0.94661331381295    8.05585885069030    4.00913991240416
C        -0.12513261333483    8.88882803776051    3.56321786246736
C        -0.67781346969294    8.29443241625157    2.41225347919167
C         0.04840720136947    7.10754308434809    2.11900394480315
C         2.35484269075578   12.29371669173775    2.25008232061062
C         1.07574575517814   12.62153427119966    1.82293128613936
C         0.71131185265405   13.94941184050344    1.67976802073204
C         1.61814091542950   14.95215595885996    1.97404157534279
C         2.89020800098425   14.62905145697064    2.42295290545910
C         3.25843638579373   13.30609800229684    2.56622832284175
C         3.28019843173530   10.68352999263508    4.27114820225362
C         2.27481519341676   11.19828498907285    5.08973874679970
C         2.44573127224240   11.27630629218635    6.45707250818497
C         3.62859668083611   10.83585806690943    7.03076039118334
C         4.63056118799033   10.32075747433606    6.22736498561034
C         4.45948548848112   10.23887306008085    4.85540799244596
C         4.45336895379185   10.44670841547997    1.59542123014864
C         4.28399670317324    9.59479967801318    0.33390217122175
C         5.62182976979462    9.28525026109728   -0.32534358050789
C         4.55535533066063    7.13092090340959    1.75475883456226
C         4.57037788780444    7.23775050137077    3.14045239396834
C         5.52938183403671    6.57757353931319    3.88670153461610
C         6.47986611483969    5.79769705041166    3.24897962931035
C         6.46614495838449    5.68013648154994    1.86767851050486
C         5.51072949907357    6.34287095242729    1.11908796639961
C         3.05786011447482    7.10194310769694   -0.65101696895045
C         2.96803551425705    7.65077969274562   -1.92597673683831
C         2.66490936011648    6.83711194106302   -3.00334629884672
C         2.43497944517971    5.48428241795469   -2.81789064860750
C         2.49679654324560    4.93815406867560   -1.54511994679678
C         2.79969213483878    5.74416744722031   -0.46560622212213
H         1.66905562547181    6.08288554137872    3.26410650528469
H         1.47532549639881    8.16770916144202    4.94798933171249
H        -0.53891103851661    9.72823140257873    4.10634831623155
H        -1.54830922943842    8.64571781314781    1.87120390753057
H        -0.22488129612369    6.37026797064301    1.37467118243597
H         0.37006689244668   11.83637027452081    1.58982186610151
H        -0.28150736906870   14.19807360042168    1.33616396162252
H         1.33586613203458   15.98856406968383    1.86037170421584
H         3.59383003155390   15.41259416965475    2.66541795499729
H         4.24331086739789   13.05191990282416    2.93716042817043
H         1.35549855272179   11.54358530810227    4.63295598333093
H         1.65879818857034   11.67890419697647    7.07824829637318
H         3.76707208434937   10.89371304514450    8.10022505302076
H         5.55480423274065    9.97721974443606    6.66970954259573
H         5.25674839498809    9.82600200704788    4.25462385560636
H         4.80281953851370   11.45135664438518    1.33966890289423
H         5.19435873730923    9.96935514907387    2.24422934680669
H         3.63649489239024   10.13687691324100   -0.37138725022200
H         6.08444371524842   10.20670699396520   -0.67615756865550
H         5.48725245297138    8.62415867661944   -1.17941935191722
H         6.30130344246177    8.80746055164687    0.37937121992946
H         3.81356794191513    7.84403194707553    3.62633716201104
H         5.53275233440407    6.66855253531462    4.96353317181006
H         7.22892574930240    5.27692004596998    3.82718231935606
H         7.20557577737721    5.06840289869778    1.37144590307392
H         5.49868482893724    6.24380067188515    0.04282438642087
H         3.10903523474604    8.71025351515532   -2.07664811690515
H         2.59621455186303    7.26679178341367   -3.99148226000409
H         2.19399581291220    4.85557764972708   -3.66238564511910
H         2.30091189740302    3.88597726755456   -1.39553307991921
H         2.84037922624411    5.32957734502641    0.53498624326816

