67
CSD_code = VOGQIS | q = 0 | S = 0 | Stoichiometry = C32H31IP2Ru | MND = 8
I         4.75386480841415   11.05436968096864    3.76345605744844
Ru        6.40344058901238   12.34054974260182    2.05364154827353
P         7.55546263126373   12.98686106828591    3.87590204735115
P         7.92354019592224   10.67035917855697    2.02482412271480
C         5.09515819628959   14.04314385722576    1.44038338755025
C         6.41708568614534   14.28582930093486    0.98686175697306
C         6.76629961363164   13.26188081040435    0.07037064124296
C         5.63836657568550   12.39884456694722   -0.07518273339048
C         4.61682371397418   12.88874289655667    0.76098835305354
C         9.02269363523522   14.03902467201763    3.62390796733651
C         9.63185107889574   14.00883694518656    2.37512898222657
C        10.77606235711357   14.74622353838243    2.13201125243742
C        11.31618106463755   15.52858762475424    3.13918417264192
C        10.70997733017376   15.56927887120137    4.38533428904200
C         9.56919695711264   14.82791625623994    4.63257870761158
C         6.68018609852450   13.87305331557930    5.19244840861311
C         6.15515789376591   13.26654511219473    6.32833520085964
C         5.39721549821254   14.01035091119489    7.21570842864611
C         5.14670871733508   15.35018371721041    6.97289772761243
C         5.64937661377696   15.95407536451521    5.83054763583805
C         6.40627535538631   15.21744484252897    4.94157561801708
C         8.31430143787716   11.47912137408481    4.67179668394606
C         8.98892042075881   10.68124422489312    3.55196859212804
C         9.28119180638477   11.78029856599050    5.81051613457319
C         7.45452392295080    8.91028775948117    1.86207578416540
C         6.16065656219049    8.57585148371252    1.48546270827919
C         5.80906844163255    7.25101387602984    1.29802348800400
C         6.75389488715638    6.25502252602056    1.47194868664127
C         8.05580798623138    6.58566739858713    1.81587640034368
C         8.41022082584023    7.90751125713233    2.00354583013496
C         9.10307632380378   10.70031172509557    0.62558128633034
C         8.56576260513559   10.28685840467314   -0.59371956204978
C         9.31587353712698   10.33221020807513   -1.75135563303252
C        10.62151350763885   10.79644352440909   -1.70983834659257
C        11.16321382249540   11.21084913420830   -0.50603422153999
C        10.41083377479838   11.16852061201442    0.65607330286764
H         4.49451842372498   14.71020834926765    2.04612132817293
H         7.01551422477774   15.16054856300461    1.21295455036523
H         7.65570958833885   13.23679196256739   -0.54839327448416
H         5.53373068867327   11.61589325184680   -0.81503894659942
H         3.60865940595953   12.49719701696950    0.82708124573375
H         9.19162052005724   13.40147013785934    1.59202966818743
H        11.24221909671471   14.71367382384128    1.15753458421638
H        12.20668474868823   16.11081375051370    2.95325909223063
H        11.12983808883501   16.18268122467568    5.16934593632229
H         9.09656630809781   14.86617188628743    5.60399072818773
H         6.31653325982401   12.21555220245305    6.51452913119856
H         4.99026258716387   13.53467043243638    8.09537716205856
H         4.54938330225691   15.92314110863508    7.66658630373890
H         5.44330266129766   16.99600047077505    5.63121566606803
H         6.79707574201888   15.67657400060044    4.04048230041666
H         7.46371425245012   10.89684349926392    5.05414396942389
H         9.18484947354929    9.65581724993780    3.87912281075832
H         9.94279827002610   11.15934098019338    3.30773387239646
H         9.60298475629409   10.85113549984586    6.27916255047367
H         8.80454114933285   12.39795100466683    6.56942105500503
H        10.16404779830903   12.30322038048788    5.44452412547120
H         5.42526657265405    9.35732025505056    1.34804458203057
H         4.79697154457505    6.99849615808475    1.01960614631743
H         6.48117891664912    5.21940154906844    1.33222469432291
H         8.79804665896059    5.80917643214739    1.93366260472875
H         9.43328361093747    8.16419004039941    2.24604387732077
H         7.54693318653424    9.92054206570282   -0.61950882097279
H         8.88543058366120   10.00661820289735   -2.68728518160541
H        11.21282019373088   10.83474408346064   -2.61267121844989
H        12.18084852535493   11.57259913113081   -0.46729291932623
H        10.86148138799859   11.50700093807611    1.57786767000461

