79
CSD_code = VOGRAL | q = 0 | S = 0 | Stoichiometry = C41H35P2Rh | MND = 7
Rh        6.89001853530279    3.68274794501372   13.02138139398446
P         7.35256644221550    1.89748226805595   14.26187363364507
P         5.16531629832635    2.81133274437989   11.91230861598289
C         8.08795447721460    5.34652443569894   11.78583447693575
C         6.81149892297797    5.79269170004311   12.27290896431088
C         6.88370230770375    5.90125926496106   13.68490454269761
C         8.08599547794497    5.28752933489240   14.07492120694132
C         8.85486346080701    4.99886094457151   12.88880526627622
C         8.10255124041825    0.40243366303503   13.52507251057691
C         8.21509820854852    0.33978944012745   12.14246519660336
C         8.79839759103315   -0.75730260625943   11.53449229833126
C         9.28421788786805   -1.79592324256792   12.31129985167964
C         9.20112310955244   -1.72676245720992   13.69354894095727
C         8.61930823519755   -0.62997674026070   14.30228292154656
C         8.60718284107072    2.19403091817308   15.56308333807515
C         9.92319066908083    2.33669406234641   15.12849689255567
C        10.92955787816478    2.63463473835514   16.02535945427039
C        10.63100337069596    2.80054198920329   17.36925503448216
C         9.32469933192892    2.66598784249403   17.80647059897834
C         8.31315784510803    2.36672932883556   16.90911118818188
C         5.96220074222759    1.25455798257289   15.25898769090402
C         5.16949195819475    2.24109351008007   15.84240215246156
C         4.08701671470260    1.90420749737896   16.62958721233900
C         3.77682916338581    0.56851504096930   16.83298337082224
C         4.54740505989371   -0.41596421839159   16.24041383676305
C         5.63693127239799   -0.07938517929677   15.45438971770319
C         5.38992873008502    2.33121790858162   10.16007851505336
C         6.56627156307530    2.71161753574598    9.52773762041645
C         6.78819732000831    2.38892300218065    8.20093357090452
C         5.83143738640431    1.67695819331614    7.49721994771777
C         4.65660037476365    1.28902906700842    8.12304506648299
C         4.43297459903734    1.61242268014136    9.44861147198153
C         3.79377193053463    4.02179799182374   11.79356309662169
C         3.11531555011338    4.35468925339620   10.62924953793129
C         2.12442251718304    5.32254794651202   10.65740165007649
C         1.80242123447533    5.96334879308652   11.84093753655744
C         2.48466332350214    5.64480320450358   13.00515424900077
C         3.47935431388851    4.68767704852158   12.97681791674078
C         4.26812105205742    1.32524892120582   12.49780015697527
C         4.81129114237048    0.07677133769354   12.20491316389176
C         4.19566807467037   -1.07834622717060   12.64557294017041
C         3.03177585441060   -1.00223857800613   13.39276419138351
C         2.49424975424219    0.23527535066132   13.70097339785175
C         3.10855486365860    1.39380809217447   13.26007830940058
H         8.40181067957341    5.35696625224669   10.75326568932876
H         6.05166105090135    6.25270114965499   11.65342129661215
H         6.15499868624014    6.36963388695080   14.32913293953743
H         8.49211537246482    5.26449995054677   15.07776554151147
H         9.88855934386907    4.68710373730188   12.88623145132939
H         7.84589583795282    1.17514537987728   11.55616148957588
H         8.87860802362976   -0.80076728056365   10.45765956376048
H         9.74051451674582   -2.65529105070633   11.84183268888024
H         9.59754689803764   -2.52995687732391   14.29826077072500
H         8.57617600446864   -0.56389632139547   15.38135467567677
H        10.14361879581196    2.21119092457353   14.07571687069632
H        11.94802429926991    2.74218226019288   15.68041552354039
H        11.41581618177437    3.03712572773667   18.07283498837222
H         9.08928894330916    2.79644958855243   18.85319913050451
H         7.29564683209033    2.26464098022235   17.25926192502378
H         5.42437817434811    3.28078552621620   15.65748941335797
H         3.48154018824557    2.67636659322627   17.08254075756490
H         2.92987362759173    0.29695932560945   17.44608227241020
H         4.29869743405783   -1.45704014573575   16.38817144378250
H         6.22057666310257   -0.85806068045963   14.98643582224907
H         7.30634628158387    3.26121474402244   10.10020934726196
H         7.70566450573875    2.68911012926116    7.71531689298752
H         6.00010050608805    1.42057940186111    6.46136962243936
H         3.91134921872172    0.73180582140412    7.57344636537643
H         3.51828625318215    1.30523104043167    9.93751038861950
H         3.36233930846377    3.87002088093747    9.69584939404141
H         1.60380955510368    5.57964798789643    9.74589581271526
H         1.02934736979436    6.71780516234886   11.85511679936720
H         2.24486956698858    6.15204462239390   13.92889346950559
H         4.04468474509222    4.44794209570125   13.87123233383150
H         5.71552897609941    0.01483887750334   11.61606280022458
H         4.62425485908639   -2.04056919904513   12.40382602054492
H         2.54623970856430   -1.90466829115332   13.73425486993423
H         1.58874033864369    0.30013512843036   14.28685466009800
H         2.67639262696260    2.35414094275245   13.50093432150103

