95
CSD_code = VOGROZ | q = 0 | S = 0 | Stoichiometry = C36H51Cl2N3P2Ru | MND = 6
Ru        7.86050226569570    7.12628218891467   17.59673959675268
Cl        6.21300513978105    8.87140475989751   17.70717248327407
Cl        9.37346178980624    5.28391490621533   17.55647184600808
P         8.63103029491432    7.68326188630329   19.80093394532989
P         6.69057142570452    6.14744193171312   15.74011109178186
N         8.97425396543191    8.29154272537172   16.68663792133054
N         6.57532864119657    5.96662655738950   18.63715355685274
N         9.57456837287161    9.28194014347526   16.65608024448050
C         5.39123558360080    5.62847411169711   18.10243713834386
C         4.46577706023531    4.87909505941312   18.81710360556067
H         3.51509372731773    4.63689880161038   18.36799011911918
C         4.77883179713301    4.44214327155066   20.09209806346328
H         4.07928801793995    3.84792635045135   20.65886104747332
C         6.00952371627829    4.78528346983223   20.62426635781718
H         6.29275671215418    4.46101332582600   21.61359545760130
C         6.88502084069460    5.56473161551774   19.88016390664744
C         8.20361349968155    5.99191348075242   20.44393016543455
H         8.98314066830345    5.33452348156599   20.03802287410221
H         8.20719450757880    5.92771833241868   21.53401764072364
C         7.63746677855831    8.81269506146485   20.97359243862365
C         7.64332151108090   10.23876475947164   20.41652651042578
H         6.95085987468714   10.85480744759415   20.98868486247320
H         7.31543018823285   10.24635418098664   19.38030146274827
H         8.62362294073186   10.70017852458505   20.47220544029719
C         6.18976274396571    8.30903691667510   21.00149330644888
H         6.09993837507074    7.36401868802198   21.53363446539097
H         5.78716674320891    8.19767482687541   19.99778001867824
H         5.56933611084703    9.04102644036851   21.51721835849197
C         8.13619698140740    8.82618289517432   22.41897512878595
H         7.41508753133685    9.37576326104342   23.02404007110760
H         9.09200010223146    9.33100703709603   22.51992521310515
H         8.21170432288950    7.82221079987545   22.83228075708063
C        10.48527385415191    7.85476413376254   20.21411518666424
C        11.28524574934997    7.15902912798900   19.11076459657466
H        10.97811164312833    7.49938219572304   18.12258744021780
H        11.16732055015134    6.07948217444431   19.14711507938917
H        12.34408487988650    7.38434705241448   19.23446040466503
C        10.86406504286637    9.33792538948297   20.18069687823461
H        10.51849645327550    9.86902216612365   21.06291760242566
H        10.45517589725982    9.81916447800678   19.29261779023046
H        11.94813812216092    9.43931574425515   20.14164033416380
C        10.90140661860847    7.21789583452822   21.54078880775433
H        11.97774349247828    7.34317108227018   21.65608399018597
H        10.69361734907756    6.15062406662264   21.54649361602893
H        10.42458313934215    7.67306606845288   22.40062134250325
C         5.10173259958701    6.07842376316069   16.70524366101215
H         4.74779990389739    7.11623929336163   16.74227825705329
H         4.33485833100251    5.45605971333987   16.24005498700854
C         6.22416834058807    7.16221439643807   14.19600783401789
C         6.40798439497636    8.64061295451176   14.54282491126180
H         7.42377865875682    8.82821113423546   14.89051865093990
H         5.71130973379646    8.96359542731607   15.31114728978339
H         6.23691285428224    9.25076339846491   13.65668447723380
C         7.21390879944479    6.84962227492692   13.07160869833846
H         7.02338362046190    5.88642539824022   12.60775235685026
H         8.23390870020341    6.86962360279456   13.45494291704864
H         7.13244983504293    7.60910161016453   12.29454976776496
C         4.78188146783769    6.96777865907790   13.72835849389972
H         4.62818838450006    7.56324303239858   12.82879855752956
H         4.07783700702859    7.31945549078947   14.47854167794882
H         4.54955948948088    5.93699952792867   13.48606311046270
C         6.89197245682679    4.31857422221786   15.23125639313698
C         6.79102010591955    3.45987502275851   16.49746824640929
H         5.78065640652546    3.44840462021314   16.90143391732335
H         7.48401233117622    3.80189360154874   17.26234163484441
H         7.06054035224374    2.43316534669417   16.25234220585831
C         5.82337295182809    3.81569992853214   14.25923375870546
H         5.95706684735033    2.74146929716179   14.13165580576029
H         5.90970160851165    4.27025487028407   13.27730845139972
H         4.81687938680955    3.97543616603821   14.64117849860776
C         8.27920025664452    4.10783468406696   14.61924189610440
H         8.47782286216909    3.04058749699293   14.53001131371856
H         9.04596242489826    4.53646415798571   15.25907297964384
H         8.36409637063623    4.54482327751459   13.63022080593039
C        10.08963663897937   10.43734097108470   16.46855963621371
C        11.49177755902363   10.78937459883143   16.53743020652129
C        12.61612463965175   10.01595966476030   16.78186197938460
H        12.53156139380124    8.95384008907257   16.95888851578329
C        13.85287355520260   10.63645323952599   16.78689874610161
H        14.74117104369638   10.05124625593814   16.97734916982821
C        13.97255490186070   12.00089265645741   16.54763530997248
H        14.95216353235326   12.45660701902824   16.55759218410328
C        12.85626333224059   12.77964111921148   16.29347259198549
H        12.95666319683950   13.83814352885306   16.10288894710853
C        11.60880804871899   12.17805543969327   16.28736584031258
C        10.28290231131408   12.71214971904160   16.06351608693076
C         9.83600265888681   13.99317862730958   15.78334581294616
H        10.53589597271573   14.81040391622549   15.68642135989557
C         8.47648518578317   14.20726025907189   15.63175693848267
H         8.11402785938043   15.20081383711528   15.40993043114011
C         7.56663176833794   13.16454496903081   15.76900671978048
H         6.51048767562166   13.36279111456458   15.65863566785103
C         7.99132184550893   11.87728081644766   16.04754332881224
H         7.28058470696383   11.07391796286988   16.17118969481034
C         9.35184066838017   11.65420507347141   16.18192111164471

