45
CSD_code = VOGSEQ | q = 0 | S = 0 | Stoichiometry = C22H12ClF3N3O3Re | MND = 6
C        11.79608323702918   -2.46232967904070   -1.43068649543767
H        11.09393358947561   -3.26893878248219   -1.26368580650071
C        12.75295704181640   -2.56154661028615   -2.42366321454074
H        12.81194838579660   -3.45036296673631   -3.03021459262419
C        13.62485646183970   -1.49899813363585   -2.61373773226389
H        14.38492953176110   -1.53658021398192   -3.37920352850313
C        13.50124800289174   -0.38799884838703   -1.80483744731294
H        14.15418232895384    0.45719666999379   -1.93680810466972
C        12.52144951347124   -0.36665982380045   -0.81140872518860
C        12.31444189205462    0.73632315838831    0.10004304599184
C        11.25768613971510    1.72337072101679    1.73034484921215
C        12.66964798770156    3.74020085946503    1.91319157429628
H        12.03535512427849    4.15444171031367    2.68058181959934
C        13.77334534399738    4.36362691883311    1.43192211551850
H        14.06360203521380    5.32178193731480    1.82941909769157
C        14.54463575302417    3.75781797119906    0.41227007808121
H        15.43071241924950    4.25612048152794    0.05415222071068
C        14.16354164906207    2.55967118068680   -0.11706445779936
H        14.74298346960462    2.09571758724159   -0.89651774316955
C        13.00960393368641    1.92005673925978    0.36931768362734
C        10.28526089820214    1.98742693422137    2.78540063949690
C        10.70013961616836    2.34267132165964    4.06783122542364
H        11.75272967233958    2.40875943314530    4.29948158397489
C         9.76872036656562    2.55904198924584    5.06476237098839
H        10.08914736229211    2.82494543150760    6.06022389234928
C         8.41651374893654    2.42595085435879    4.78086058998168
C         7.99225721970359    2.05453652705321    3.51091026849613
H         6.93939358085746    1.94028524001924    3.30584683949525
C         8.92425168624595    1.83467527596006    2.51670060004362
H         8.60323540971994    1.54501249913419    1.52780651356094
C         7.38872526359784    2.65627409713690    5.85391829531245
C         9.63231660192101   -1.08770264389200    2.90763981150981
C        10.08053060680448   -3.22525743712911    1.23806297112832
C         8.80060366339517   -0.92959477807403    0.14957302166569
Cl       12.52433418453699   -1.62836887809095    2.21908254019622
F         7.86818178758064    3.35425862817490    6.89488747432600
F         6.90362352691431    1.50986445965738    6.35664468460867
F         6.32680160861679    3.34384910616999    5.39665018182697
N        11.67549643987397   -1.40280137967296   -0.63839311520300
N        11.25490197347216    0.65695395866240    0.95061117738431
N        12.30905332333010    2.52686577044792    1.41085064700220
O         9.29602544187735   -0.96511154688973    3.99541559560285
O         9.99072066545372   -4.36429250434879    1.29969971960701
O         7.85071123040990   -0.67222529339876   -0.44866417224666
Re       10.42278028056482   -1.31122794196777    1.14008200674725

