52
CSD_code = VOGTUG | q = 0 | S = 0 | Stoichiometry = C22H27MoNO | MND = 10
Mo        3.94755812889327    4.55420526360292    3.00128135018132
O         6.29097455254609    5.72671585761537    1.71974124335415
N         5.35752177724796    5.24299290002242    2.26787772227485
C         2.97146540207519    3.09615410462238    1.49000612003055
C         2.43393167719933    2.76351381056971    2.76259846058168
C         1.68078757257450    3.85371885727091    3.21762142718407
C         1.70756690807100    4.85237336522234    2.21525920932113
C         2.49992986582342    4.38920493251004    1.15246136838569
C         5.25887800180612    2.98890229772915    3.72156371878945
C         5.80680669830390    2.90579303382886    4.93320302018306
C         5.54175761136730    4.04774392023048    5.89869462848724
C         4.40521978874839    4.82657104735517    5.26426829486577
C         4.57205108855263    6.05035861937607    4.62769493777901
C         3.46437745802001    6.60381600407959    3.91764370250764
C         5.49616810687708    1.94395568870005    2.72036379292262
C         6.19103070184123    2.22317545704088    1.54256492304610
C         6.39329999946822    1.24052341039350    0.59167991765028
C         5.90238931758979   -0.04010459144141    0.79056902940679
C         5.22361716638463   -0.33614543660537    1.96071108144956
C         5.02954556090838    0.64216254494064    2.91760762700755
C         6.72184873892906    1.80037679339056    5.38938612006250
C         6.81412690616762    4.89524863315312    6.05154688549687
C         5.10574536736017    3.53703637981996    7.27859759010097
C         2.15542662159710    6.78450825053276    4.67290780247421
C         3.76572927024519    7.83096371701272    3.08097237846561
H         3.43784906684747    2.40085720006276    0.80233332610444
H         2.48903124585616    1.78955094293211    3.22934093835591
H         1.03156026193633    3.85064700819087    4.08381462097956
H         1.10349616249149    5.74743312081968    2.19622720475653
H         2.61663601441450    4.87000310662662    0.18934769509154
H         3.43375964707148    4.59772960296391    5.70166574695648
H         5.55585314433106    6.50485357842871    4.53127280694637
H         6.58994569251973    3.21439920248269    1.38269568923186
H         6.93748564987833    1.47425193112321   -0.31218832500473
H         6.05470004024573   -0.80436071192559    0.04241644526167
H         4.84924086276348   -1.33610315800768    2.13047176517992
H         4.51326220476682    0.40097866505943    3.83711054170605
H         7.06599033886853    1.21454893052286    4.54148354289145
H         7.58979774386429    2.20619910553025    5.90466511273825
H         6.20266883015745    1.13355577177596    6.07839783443672
H         7.22591758495281    5.14177823382927    5.07413742768669
H         6.60031351083691    5.81126107024837    6.59917549931452
H         7.56771270239340    4.34018138625745    6.60405655017526
H         4.24412040398883    2.87802401348321    7.18721221574115
H         4.83745424514352    4.37569641220270    7.91891414628923
H         5.90969135164875    2.98590682233799    7.75840989041272
H         2.28409424284209    7.58401825693443    5.40698944382964
H         1.83476240020435    5.89547665575088    5.21029321293176
H         1.35352970898615    7.09007153096447    4.00415292400274
H         4.73280699774525    7.74613808084623    2.58899836283435
H         3.00419843057690    7.97105825828616    2.31496064269508
H         3.77556722606141    8.72828012130791    3.70392238645430

