53
CSD_code = VOGWUL | q = 0 | S = 0 | Stoichiometry = C18H25F6NNiP2 | MND = 4
Ni        4.04156016584666    2.92721025301284   15.56235057779372
P         2.54823944607414    1.58318145770606   14.70023574161463
P         5.54278965653275    4.25535453040594   16.43473625993175
N         4.13761757291832    3.91319618847978   13.88387085681880
F         1.87023655429321    6.86728551863673   12.09688476467771
F         2.89834067402721    6.37019561305243   10.27194344931439
F         3.80691927374594    7.70824985945196   11.69504573710702
F         4.76889547198543    4.03878147081865    9.53160810423506
F         5.75430415912004    5.86224948894269   10.11956616582484
F         6.63501582877938    3.95646696374976   10.59494404968136
C         3.90928791641294    2.01647051761787   17.19039674598514
C         4.71986657996743    0.92471902039482   17.49636690879143
H         5.45438892811317    0.57425692904157   16.77909779691353
C         4.59777389673639    0.27749550226324   18.71602547735502
H         5.23345086841394   -0.56759577828105   18.93984815016384
C         3.66760659963019    0.70918563204745   19.64545424033904
H         3.57466266873493    0.20364127773417   20.59527950447011
C         2.85694349861311    1.79226847373864   19.35253252125792
H         2.12857953700207    2.13413660363545   20.07443373432281
C         2.97544852584321    2.44278863824499   18.13453504801550
H         2.33346914017161    3.29168107848829   17.92000374132741
C         2.97950166007282    0.87706791818420   13.06773287764868
H         3.87337334143050    0.26330624051639   13.16010103785636
H         3.17983824395512    1.68135782444737   12.36319996621333
H         2.15688619004031    0.26527494031073   12.69987461181612
C         0.96743700510772    2.42498310036062   14.32464093533948
H         0.27297188344363    1.72271836949657   13.86566468656646
H         1.15195902790270    3.25273249774169   13.64323565765701
H         0.53424027017984    2.81488568884431   15.24362818983601
C         1.95168206500937    0.08852936159443   15.58028434078228
H         1.52702803296758    0.37401276348499   16.54046705764789
H         2.78760879952535   -0.58341474214580   15.76341360153983
H         1.19807644492316   -0.42183670409439   14.98242817550355
C         5.03568602350411    6.01337830369321   16.45998512432996
H         4.14467198694036    6.12705150355192   17.07442566659693
H         4.80815013622706    6.33913162792673   15.44721761057519
H         5.83840911152646    6.62536177225117   16.86882475761285
C         7.11464652352509    4.34261567952007   15.50184088136547
H         7.78787592776229    5.05497769150612   15.97671351063752
H         6.91358812773497    4.65524065180798   14.47948030328033
H         7.58248146898970    3.36024280972209   15.48199514873489
C         6.16321456934770    4.04322441511792   18.14779107980743
H         6.62604197404842    3.06377149570964   18.24916559543680
H         5.33203500442239    4.10109747796585   18.84753560968180
H         6.89245541656163    4.81793601089853   18.37979790711526
C         3.36803894897241    4.96755269951416   13.54668034104191
H         2.61375011454231    5.36221167176037   14.20443317325135
C         3.70014940198312    5.41959867759063   12.28306219145423
C         3.08589307133975    6.56779832453425   11.58629829737554
C         4.97231432002243    3.67336372381019   12.85299559517201
H         5.69302769923837    2.87529620661652   12.87217646590810
C         4.74970989389937    4.58097538819669   11.83401441386665
C         5.45936035185409    4.62123737028210   10.53933561256160

