49
CSD_code = VOGWOF | q = 0 | S = 0 | Stoichiometry = C18H28NiP2 | MND = 4
Ni        4.73165204656549    4.01003389554642    0.00000572299840
P         5.24597579099808    5.65033699597007   -1.28859810328644
C         3.63127202100216    6.71802699065997    3.05604652726584
H         2.72437151606028    7.21912384403008    3.37002203540182
C         5.96557936156662    6.28879631263360    3.33250739734442
H         6.89476788460978    6.45306280777929    3.86332621225397
C         4.81257578019045    6.93483540790762    3.74365373777441
H         4.83477158155284    7.60308637486519    4.59355129704370
C         4.87334078532437    7.37932537841169   -0.79465944657891
H         5.24593160833731    8.07649026889726   -1.54433886391734
H         5.33535156055409    7.58901752666162    0.16774083212212
H         3.79681795772834    7.49997048770490   -0.69066508433980
C         7.05581745070376    5.75769031911018   -1.54566726867996
H         7.29582074252634    6.59712757733203   -2.19676787917367
H         7.40736841430461    4.83227323273782   -1.99658943301019
H         7.54526219834946    5.89045964159410   -0.58315358005088
C         3.60554000827642    5.86391128860886    1.96579268471529
H         2.66631054137874    5.72124386125367    1.43843672147158
C         5.93414099638720    5.43142561498469    2.24517230273957
H         6.85232368743200    4.93081659184892    1.94983078660111
C         4.75444916929330    5.19421437980715    1.52991173726891
C         4.65197737820256    5.68619709435194   -3.02506959621297
H         3.56428408656955    5.71838952172013   -3.03252302267346
H         4.97244224678475    4.78144923727017   -3.53697162506791
H         5.04348312217097    6.56251393253005   -3.54023242385306
P         4.21733943899987    2.36973792227367    1.28861046018543
C         5.83206073127326    1.30206195454759   -3.05604119157236
H         6.73896452581403    0.80097204104072   -3.37001688155191
C         3.49775336919566    1.73128671253555   -3.33251166698829
H         2.56856504094765    1.56701066793218   -3.86332785637568
C         4.65076021813781    1.08525130378759   -3.74365280125138
H         4.62856914179689    0.41700014501926   -4.59354985829955
C         4.58996980837381    0.64075388544909    0.79465255902839
H         4.21737035709044   -0.05641373652475    1.54432437307340
H         4.12796337153206    0.43107077817796   -0.16775174264231
H         5.66649273913475    0.52010086797600    0.69066331865520
C         2.40749686657577    2.26239414096317    1.54566666921727
H         2.16748922468967    1.42296656194125    2.19677776136832
H         2.05594651508497    3.18781904514954    1.99657453202061
H         1.91805556500663    2.12961305797301    0.58315259999652
C         5.85778733719535    2.15617997376071   -1.96578958427978
H         6.79701437452706    2.29885267121127   -1.43843109418051
C         3.52918608339510    2.58866001918317   -2.24517931412773
H         2.61099873707225    3.08925866941261   -1.94983479811093
C         4.70887713485379    2.82588291955620   -1.52992125407920
C         4.81134648099854    2.33387175447788    3.02507732472242
H         5.89904017374331    2.30167793789175    3.03252601653633
H         4.49088404121045    3.23861873325535    3.53698279963842
H         4.41984078648139    1.45755338879174    3.54023796086075

