87
CSD_code = VOGWUK | q = 0 | S = 0 | Stoichiometry = C34H44Cl2N4O2Pt | MND = 4
C        10.16959845759541    1.36409293109844    3.86671654406087
C         7.56692405351207    5.84176198184100    6.56903679442841
C         9.65307753501184    0.44031931228026    4.88225975565053
C         8.37216011568961    0.62233527622066    5.40580110151852
H         7.72716060831100    1.39770441587518    5.00458697379759
C         7.91434603156635   -0.21805610785207    6.40273000729295
H         6.92500005869124   -0.07522568036426    6.81093113466760
C         8.71991170193330   -1.23936247774307    6.88107150780094
H         8.36299171049875   -1.88346328106760    7.67115967605032
C         9.98170437173468   -1.43624265134487    6.34530117456979
H        10.60814907623809   -2.23391777052096    6.71590456689336
C        10.44819647494346   -0.60535189593045    5.34417292138562
H        11.43761511159008   -0.74139428295918    4.93564213216168
C         8.10224370657467    6.80069294859848    5.59818380291431
C         9.40597191618473    6.65586596750270    5.12060860876641
H        10.04613329854737    5.87498811735828    5.51912224664431
C         9.88948939984927    7.53488754466809    4.17061137369955
H        10.89648448615260    7.41940920890387    3.79856207910185
C         9.08742519191362    8.55977443985154    3.69355756149260
H         9.46607535899286    9.23642830956059    2.94160032891147
C         7.80126760361186    8.71833428453905    4.18223884966006
H         7.17750106764231    9.51882051208990    3.81288014284219
C         7.30835612067923    7.84751527012079    5.13540540958422
H         6.30105993692285    7.95496039244407    5.50691847516924
C        12.33266704818164    1.21833884015645    1.20568479762096
C        12.93386030549170   -0.15399636147886    1.13006031568155
H        12.16504791717610   -0.91396916844651    0.97775704784383
H        13.44967093278371   -0.40024254784662    2.05943112625619
C        12.93618376059143    2.04096733432670    0.10228668989293
C        13.88311828881760   -0.00244250776149   -0.06236558249539
H        14.66244440643053   -0.76135029809021   -0.11004528459740
C        12.99410288621608    0.06089974986739   -1.31135469764459
H        12.27384122515859   -0.75688807580740   -1.32664420726214
H        13.58670798099362   -0.00964656989929   -2.22237522049071
C        12.30974234541321    1.43413929751702   -1.17643532747795
H        12.51035596753591    2.07942241720772   -2.03062198831747
H        11.22814422042842    1.35085813481460   -1.07285112426988
C        12.76138313374594    3.53811183230719    0.23857880034014
H        13.19220449705396    3.88658271710147    1.17323286469190
H        11.70349845710219    3.78737495371503    0.23650639248462
H        13.24418405034815    4.05252325541956   -0.58874577480328
C        14.37362025248883    1.45582361922119    0.08380772890011
C        15.24528303524744    1.93586473993893   -1.07304225580904
H        14.76442725934766    1.82916929992195   -2.03855877226309
H        16.17105362812590    1.36395797928979   -1.08845963875266
H        15.49989580382538    2.98444681836577   -0.93627947983039
C        15.14091236235469    1.72096553564343    1.38055944063086
H        14.51787620557355    1.60796079508188    2.26282259722429
H        15.52939722266754    2.73687522760276    1.38101214643039
H        15.98442080691109    1.03799548351207    1.46100657884182
C         5.10018292236000    5.78019920589089    8.94344567713684
C         4.30834887012192    7.05069168361267    8.84996282838876
H         3.99032967380343    7.23826712051380    7.82236112356290
H         4.90731161536864    7.90691054583654    9.16311959840011
C         4.40293489058094    4.87897727838352    9.92431407538604
C         3.14580559962646    6.75034802742035    9.80035119939894
H         2.60108853793618    7.63349976683234   10.13035208632725
C         3.14172842820747    4.43457398808778    9.14450025634609
H         2.64816928608814    3.61860757403380    9.67077040590301
H         3.40889678821396    4.07373672927950    8.15159758986188
C         2.27201708531105    5.70479800177137    9.09322167221693
H         1.32274994879177    5.56799849600684    9.60925567580609
H         2.04669439840409    6.00476934427846    8.07005086358373
C         5.23823616443306    3.74293942540823   10.47386450614717
H         4.65813082022443    3.15371392180824   11.17993445640022
H         6.12127929586084    4.12892006183670   10.97574601658407
H         5.56378703923479    3.09702503251525    9.66295262528742
C         3.83223060270449    5.92876528924165   10.91409860343887
C         4.92366145903492    6.69721876781915   11.66192472264782
H         4.52046356598600    7.62801149934178   12.05649144568410
H         5.77551114396269    6.92835585472702   11.02894308349453
H         5.28673403194277    6.10609945601722   12.49962905520484
C         2.86656981971621    5.36933370978297   11.95499543022371
H         2.42360244313841    6.19139574220521   12.51387595623309
H         3.40291329208821    4.73527043508287   12.65744896970194
H         2.06437526830948    4.78568952690721   11.51829444362280
Cl        7.30863778594880    4.22734087265501    3.67215678728704
Cl       10.53016671031431    3.01017230637595    6.79953026992615
N         9.88873929165603    2.60967240120477    3.85131021013473
N         7.92660840543905    4.61636542526262    6.61133558436993
N        11.47616703353880    1.69004048560349    2.00104688441608
N         6.13645574179035    5.41995523628398    8.32268133451661
O        10.97514502059327    0.77687110966694    2.96272179220079
O         6.65217297167237    6.36888183475725    7.40359594167835
Pt        8.92283188152115    3.61956871414843    5.23636007402399
H        10.30971968402321    3.10899576022006    3.05938109173346
H         7.48601508779699    4.09550010205218    7.37860732076321

