42
CSD_code = VOGYEW | q = 0 | S = 0 | Stoichiometry = C11H22N3O4PPd | MND = 4
Pd       -1.85229462690532   -0.90840766211006    5.10344632381864
P        -0.40524706785637    0.53938711216156    4.21960244810991
N        -2.51637024238002   -1.32066541318267    3.15475404842582
N        -0.38827171273602   -0.97817213281391    1.94085081812708
N        -2.02471070623327    0.78498378309383    1.96489779305013
O        -1.10761830325923   -0.60769238462448    6.97086108394514
O         0.80027573914303   -0.75284311456259    5.84602153544767
O        -3.09141668572249   -2.33159278549786    6.08841420139153
O        -1.27322377419738   -3.37672637010943    5.40430633023751
C        -3.58723633529643   -2.31308843780044    3.24194712777768
H        -3.97749028058680   -2.54976040447565    2.24157605320722
H        -4.39784245262435   -1.93034591436804    3.86463021142333
H        -3.19926168832383   -3.22755395725154    3.69011519429202
C        -1.37022961949307   -1.91841852430545    2.40385541043680
H        -0.89232335294403   -2.65605847165754    3.06337014915299
H        -1.77220709289175   -2.42563684183856    1.51039324297000
C        -1.03294508286275    0.07218849289500    1.18139488847342
H        -1.53325275577266   -0.37826260091807    0.31692811086667
H        -0.28083742588302    0.77875770884690    0.82508445600274
C         0.51272200119581   -0.45488144593956    2.95243834678761
H         1.27252888236435    0.15424570089348    2.45167833830102
H         1.00012366495517   -1.28792990714009    3.46808428966005
C        -3.02841518026089   -0.13514053786890    2.41844371552164
H        -3.56056482197565   -0.48817912874251    1.51715094869184
H        -3.73974621474969    0.39161039880665    3.06757141943315
C        -1.39638838602509    1.58453337555009    3.00113956614507
H        -2.18090604658752    2.12152083258557    3.54725055543775
H        -0.76611085131094    2.32544044320278    2.49736824385508
C         0.74651616326050    1.83520735166112    4.81573076908588
H         1.07172614514589    2.44323262693296    3.97233244649987
H         1.60106533034597    1.36570685104342    5.29409263138186
H         0.23020246364148    2.46488639493457    5.53932220671078
C         0.13270393726591   -0.80133006784975    6.89872551626932
C         0.85271082340237   -1.07993451181869    8.20903808642893
H         0.99001477327179   -2.15603285164021    8.29153007758083
H         0.25373841595355   -0.73064695724627    9.04458046633025
H         1.82911053839084   -0.60426070881189    8.20359062091076
C        -2.27743753799150   -3.30011603761381    6.13490884388369
C        -2.61035185640912   -4.43347994325730    7.09563839983498
H        -3.61035356513220   -4.80526552393764    6.88464218495780
H        -2.59740983337878   -4.04922088897924    8.11263410778590
H        -1.88217537854647   -5.23215754624220    6.99135879133598

