38
CSD_code = VOGYIB | q = 0 | S = 0 | Stoichiometry = C15H17Cl2NO2Ru | MND = 9
Ru        1.37446248884491    9.45448758796316    2.54756366161093
Cl        0.64842064350037    9.17147347382831    4.75633161156041
Cl       -0.87907551876294    9.62310306819262    1.92734302855200
O         6.24732429018134    3.96366962753573    2.63845379379270
O         5.48323452564339    3.51880223046161    0.57761664498833
N         0.81204192589540    7.33653045220314    2.50466472352999
H         0.39700408852701    7.24468062051084    3.44663200266980
H         0.08000688651805    7.22585983952459    1.79361347937169
C         6.39203808059396    1.91536198314910   -0.94364389645987
H         5.49682936868847    1.30472582807946   -0.86151492234262
H         7.24428510611082    1.27117692383527   -1.13802113449454
H         6.26911510255210    2.60266545662089   -1.77633796425996
C         6.61960645747493    2.68554028013108    0.34337667771636
H         6.74536338095181    2.01159138671085    1.19805414717713
H         7.51199087023137    3.31854567250975    0.27649145190010
C         5.40985522384485    4.10074504990476    1.77952669658170
C         4.18786769379391    4.92746616448008    1.93571871091438
C         3.31602150206025    5.16096759346152    0.87520561930586
H         3.52586166511002    4.72772288642753   -0.08976312689298
C         2.19203722560709    5.94076595422595    1.06249758091806
H         1.51453953111081    6.12943154455180    0.24171342421171
C         1.92419503625150    6.49463909074081    2.31351360311767
C         2.79094830186979    6.25149405138433    3.38050434651437
H         2.57000514810246    6.68960324170851    4.34405082688646
C         3.91652218098658    5.47979996953215    3.18792999307544
H         4.60316699359685    5.28317205267320    3.99707111750949
C         2.26890168663720   10.30040661031751    0.62176805709289
H         1.93626231001217   10.24313359385665   -0.40665677808730
C         1.85104465722497   11.37394029743134    1.44470507948798
H         1.18790800688607   12.13176042543875    1.04137360705527
C         2.33543098423604   11.49467049441810    2.75930317626889
H         2.05853955899321   12.34874776929415    3.36760515443613
C         3.25817243999836   10.53535486128971    3.26140190787812
H         3.67019129815856   10.65974579158189    4.25607991293056
C         3.67983370042574    9.47377528531266    2.45411442847014
H         4.42419294917653    8.77306075412569    2.81089682662009
C         3.14832172842451    9.33605185198082    1.14482903145068
H         3.50753248054059    8.53303023461026    0.50988749894556

