62
CSD_code = VOGZOH | q = 0 | S = 0 | Stoichiometry = C28H30Cl2IrP | MND = 8
C         5.24669628010668   14.15377653057491    2.87578184591866
C         4.41880437709025   13.18999162685911    3.53584050715059
C         4.59359367244855   13.35208690180422    4.95790541035619
C         5.58754282150662   14.33094500246215    5.16908888625800
C         6.01153758509255   14.82025197713433    3.87495833124687
C         5.21623053718000   14.49586058876481    1.42158577612771
H         4.54718887127619   15.34365301891078    1.26181659550948
H         4.85246358531084   13.65877753346747    0.83022147239948
H         6.20495734325338   14.76902224470771    1.05734600122156
C         3.32315888782895   12.38181506561900    2.92265093680348
H         2.36850359976623   12.89652838822665    3.05133746964806
H         3.25156380569111   11.40951544458619    3.40526543328408
H         3.48882770224743   12.22781754537025    1.85926406659806
C         3.78227370989857   12.63196571106021    5.98180970537911
H         2.72073426285230   12.79762228352111    5.79496873177247
H         4.02111974014087   12.97516004444739    6.98490804338000
H         3.97275067138023   11.55927160814397    5.93407534843455
C         6.04202328503983   14.91774846329793    6.46504776202881
H         5.64511048767212   15.92878238323224    6.57520975946553
H         7.12930695867676   14.97492666928428    6.49572441382183
H         5.71024936652136   14.31692028649531    7.30780468903247
C         6.90152531444406   16.00575773123936    3.68970650733459
H         6.41089608361237   16.89652456260704    4.08610950082166
H         7.12407314414277   16.17413813762829    2.63883939577823
H         7.83671946180894   15.87180044245725    4.23243587477273
C         8.47948052126400    9.95286118535139    2.62521233132293
C         9.53016893739209   10.03511750604510    3.53496939582241
H         9.71063904607078   10.96356207112309    4.05664543871472
C        10.32019358979665    8.92865168229618    3.78310522065278
H        11.12619141193360    8.99664548386718    4.49830983783688
C        10.07624952907574    7.73633407349046    3.12117829076907
H        10.69056879773356    6.87017663569829    3.31890017843797
C         9.04075696876289    7.65588562022253    2.20623397700619
H         8.84815021588048    6.72879905720716    1.68565887337655
C         8.24273944871275    8.75817504846266    1.95409149777588
H         7.43558570756863    8.67977705190845    1.24003497409799
C         8.69790216796341   12.35981113238390    1.23975601256991
C         9.03757312941392   13.67769514758137    1.51065886887730
H         8.61080940774641   14.16245666564719    2.37528739877917
C         9.94063221745692   14.34284991875024    0.69926042519580
H        10.20670109284058   15.36704783152484    0.91568374854867
C        10.50859093986261   13.69281549729447   -0.38309475328340
H        11.21434552246342   14.21046208267697   -1.01588566118049
C        10.18119261320787   12.37180884540588   -0.64956095608056
H        10.63267418605003   11.86168632523757   -1.48790787885928
C         9.28205009881239   11.70342643052472    0.15931751562925
H         9.02925381752111   10.67089798170211   -0.04012952335213
C         6.21906552712982   10.92509317470637    1.15618057644465
C         5.30512796260732    9.98026149858688    1.62175358089572
H         5.42165185637155    9.59005978420856    2.62355549423503
C         4.26553386210304    9.56220959887290    0.81269167089872
H         3.56530324388574    8.82378702522910    1.17415395775710
C         4.11719910751410   10.09489312325930   -0.45925246379152
H         3.30351450591448    9.77036474463909   -1.09095926159591
C         5.00989619921572   11.04966751259173   -0.91670979804228
H         4.89069277791940   11.47293864315415   -1.90370207482858
C         6.05785042628377   11.46785531769136   -0.11327857876109
H         6.75318976961379   12.21115900708526   -0.47635642448789
Cl        8.67711142044498   13.02752586546438    4.93020389644679
Cl        6.35575553970903   10.48778928400543    4.91823383375530
Ir        6.53082790079842   12.66121366643390    4.00748258873404
P         7.51707897797108   11.47027828778029    2.30617532513119

