49
CSD_code = VOHBAW | q = 0 | S = 0 | Stoichiometry = C18H24Cl2N4Pt | MND = 4
Pt       -0.00168477024125    0.00090199482980   -0.00137097616627
Cl       -1.23085974119423    0.40469746478938   -1.91446022391071
N         1.09999559010184    1.57462729947816   -0.62973824243507
H         0.73841301854167    1.90463330166078   -1.52506443707433
N         2.70118126432345    2.02118205187485    0.94604547177072
H         2.33521467301850    1.20219581833156    1.45364067301429
C         2.09120501775542    2.29364057698610   -0.20193608795354
C         3.80574472031649    2.74861454323324    1.50644826170457
H         4.68405525680188    2.71393188930167    0.85512722676816
H         4.06453413993072    2.29272922894817    2.45783534504461
H         3.54980834391050    3.79733893880681    1.68200720238780
C         2.59480129988549    3.48505808217709   -0.99763203521292
H         2.48905405166156    4.37431636801212   -0.36967331112833
H         3.65994504919531    3.33860827657913   -1.19327511747184
C         1.85230795203402    3.67557789526311   -2.29025172053702
C         0.60326203841312    4.28831991182854   -2.29644074299411
H         0.18469269740821    4.65379546959300   -1.36937646073205
C        -0.10845285207592    4.41951516436100   -3.47492271486846
H        -1.08040457167164    4.88934215290396   -3.46555550677657
C         0.42107223720384    3.94166499569755   -4.66173531171040
H        -0.13612302970017    4.03986922458510   -5.58115473752877
C         1.66451980142584    3.33367044157585   -4.66522709756980
H         2.08076058461610    2.95742033090524   -5.58789814624677
C         2.37479635527027    3.19840765655195   -3.48534364576934
H         3.34092246854413    2.71386319535849   -3.49076255011281
Cl        1.22737026017514   -0.40548420197861    1.91266560521936
N        -1.09966340209030   -1.57446387764033    0.62971595754493
H        -0.73782515447644   -1.90386576078054    1.52522369242791
N        -2.70099089345439   -2.02130427298482   -0.94564677899973
H        -2.33517225477553   -1.20244950033006   -1.45335482488380
C        -2.09088124345674   -2.29366139041569    0.20226984421365
C        -3.80552257326339   -2.74891762696328   -1.50608321547504
H        -4.68389179552433   -2.71431454750059   -0.85487215680446
H        -4.06438167032355   -2.29312299139574   -2.45748186153360
H        -3.54957831216355   -3.79760762996950   -1.68166188591065
C        -2.59459008258916   -3.48513536694609    0.99780097606983
H        -2.48879671770160   -4.37431444033634    0.36972423285921
H        -3.65975413376791   -3.33874396212759    1.19337986531128
C        -1.85220355210664   -3.67577660324329    2.29040231777332
C        -0.60308472755062   -4.28833645307505    2.29650500084983
H        -0.18451228852645   -4.65371162520310    1.36939447307966
C         0.10875427066065   -4.41925844280722    3.47491549387245
H         1.08079228891738   -4.88889057131100    3.46549068652876
C        -0.42075054837254   -3.94134033586029    4.66170393255499
H         0.13650391345787   -4.03942533334179    5.58110245321256
C        -1.66433406600556   -3.33361432206793    4.66526827708205
H        -2.08059822260460   -2.95739671432146    5.58794463257387
C        -2.37473347934915   -3.19860758991125    3.48545015944693
H        -3.34091721058401   -2.71417871312068    3.49085800849684

