78
CSD_code = VOHBEB | q = 0 | S = 0 | Stoichiometry = C36H36ClNOP2Ru | MND = 6
Ru       10.58321766201091    7.84075638867308   18.35094365229369
P         9.56197462397084    6.15187136673871   19.47481302380696
P        11.45642804165958    9.21612457508071   16.77399511997696
Cl        8.39816136167370    8.76084671659360   18.64933051442521
N         9.91287165567969    6.73670462961957   16.50412884621169
C        11.23155607357297    8.78696553149475   19.78450192829109
C         8.71430051653588    5.24378161976065   18.10069659159246
H         8.53760245824395    4.19469069515877   18.35454814957462
H         7.75672921736754    5.73865778498822   17.91500863926456
C         9.63492649854860    5.33943788808238   16.88602866645950
H        10.59043722186083    4.87284198072153   17.15719390507740
H         9.21429985458722    4.78765707671830   16.03209304932293
C        11.03753359237579    6.74904691345514   15.54827273530381
H        10.74356879190006    6.23767173232956   14.61893798322798
H        11.85600755363275    6.18460838683108   16.00394086654449
C        11.53698976740955    8.16008640513672   15.23555223613024
H        10.92437473367815    8.64049247952957   14.46793746018069
H        12.56304500310851    8.11277180582547   14.86293968657438
C        10.48397477192628    4.83690153486619   20.34242756687971
C        11.83631424135049    5.02132575151757   20.59846930286731
H        12.31605519401739    5.92274064708692   20.23651670878901
C        12.54636970848429    4.06360888414300   21.30140206283960
H        13.59814071692097    4.20981016480195   21.49913946142265
C        11.90713674966786    2.92215518100816   21.75498724549225
H        12.45982891079137    2.17395106890478   22.30411934340650
C        10.55350581498308    2.74190175583653   21.51463092017276
H        10.05311104721434    1.85649527465913   21.87972396282659
C         9.84044754207797    3.69798752961248   20.81697996754281
H         8.77897594755404    3.56800284247404   20.65151578230043
C         8.26464364913738    6.42901432852177   20.71857081788331
C         8.63090032093535    7.25621896357437   21.77716046879144
H         9.62267838815257    7.69525629905957   21.77769484778585
C         7.73451706026007    7.52875192369925   22.79125429054746
H         8.01955101148000    8.18027782300355   23.60415637266237
C         6.46564305158611    6.97159336966599   22.75742780120511
H         5.75903752358522    7.18770257568942   23.54534158406671
C         6.10023452383123    6.14418302075004   21.70999271860198
H         5.10943746946996    5.71319965451262   21.68213349518337
C         6.99473186898906    5.86876765812267   20.68982978760944
H         6.69027142686058    5.22662060326880   19.87550295710297
C        13.17915749529515    9.73661792687877   17.04258715887708
C        14.21684771516728    8.81545875433234   16.94557984303552
H        14.00208135923132    7.79426897139820   16.66097303765143
C        13.45168019892899   11.03024682230114   17.47700293018207
H        12.64198501523048   11.73932528661695   17.58636717987903
C        14.75012580019634   11.40526258223996   17.77016499279171
H        14.95574018717062   12.41157838156290   18.10469324370905
C        15.78365728645034   10.49253885883331   17.64095834659414
H        16.79750254271267   10.78745470969407   17.86831578903264
C        15.51386334814254    9.19573391418796   17.23431190134443
H        16.31698625238208    8.47772081984396   17.14999117057168
C        10.75737921682344   10.74973023315576   16.07103309255536
C        11.37998129689720   11.36566935855017   14.98665906700137
H        12.28454032820217   10.93721015729825   14.57419085133560
C        10.84957745007728   12.52507358307761   14.45648326135902
H        11.33346413217290   13.00477917173203   13.61760516197001
C         9.69941243193473   13.07668898386199   15.00308477470458
H         9.28989246331478   13.98532642689647   14.58605605917818
C         9.08035104360471   12.46699349355118   16.08008833652358
H         8.18568285886326   12.89611465476208   16.50632599271964
C         9.60710171308654   11.30354782449780   16.61715088161721
H         9.12522358628759   10.81594806670501   17.45392738014576
C         8.72177105797960    7.36721798013166   15.87723342704405
H         8.99634436644605    8.39616334498320   15.61984495851132
H         7.93778069128404    7.44045780747985   16.63564208978925
C         8.17644531130489    6.66432892560762   14.66072589651598
C         7.21218167236874    5.66866598148505   14.79092307505490
H         6.83227078339824    5.41374670597147   15.76992419476296
C         6.71162513283033    5.01240544206452   13.68068135139269
H         5.96505164693092    4.24168388640385   13.80464150189455
C         7.15972617014897    5.34715672636768   12.41457765638662
H         6.77070695893379    4.83532100128407   11.54718772912546
C         8.09602100604622    6.35545435049275   12.26712765063335
H         8.43600800135671    6.63903256485998   11.28188076472327
C         8.59611846305369    7.00860260173170   13.37999601480075
H         9.30758342671116    7.81058788179273   13.24299176914335
O        11.67091461768644    9.40219317366850   20.65279338854300
H        11.90208540431114    7.06741181221212   18.22513755863839

