41
CSD_code = VOHDEB | q = 1 | S = 0 | Stoichiometry = C10H23N5O2Tc(1+) | MND = 6
Tc       -0.09222139042521    5.37921991740217    3.65403201849842
O        -2.64361543390794    7.43210265911236    2.10537735107256
N         1.16866972127883    4.35108208948719    3.17973744099750
N        -0.56258804137756    6.51290946903393    2.08080846225396
N         1.04258266357668    7.08663291753484    4.12151864867351
N        -0.14272139461568    4.78956736445474    5.70197854663734
N        -1.72143655005808    3.91861462259879    3.55041462538556
C         0.07877358019776    7.82658606816761    2.05293343599556
C         1.37498691107724    7.76421269247773    2.85800606340217
C         2.17119845563951    6.86294092014202    5.03334589722155
C         1.70914351721735    6.31320558847532    6.38866491151885
C         1.15848599382745    4.88221658901228    6.38248848024236
C        -0.76665006635295    3.45943819815027    5.77364647168241
C        -2.04006166011621    3.48378054949883    4.92366177707567
C        -2.90170326181282    4.35612823558765    2.78769227540273
C        -2.45082976656920    5.10305420973834    1.53570426391003
C        -1.88884306419692    6.47627437096390    1.90434580745262
O        -1.88313570849216    7.09803994682487    4.71346619086224
H         0.37423636314364    7.69548752119474    4.60601479758059
H        -0.77365914776293    5.44644367358058    6.16700359902005
H        -1.31974259335231    3.12245510853864    3.04822843989661
H         0.29252980074554    8.08804182657400    1.01215653917125
H        -0.59869595781397    8.59252019261782    2.45617908346642
H         1.78502360834818    8.76517554824300    3.02748221917202
H         2.10699180497436    7.14518303002233    2.33349772481976
H         2.70662419523138    7.80440681109977    5.20464899113293
H         2.84827925850530    6.15362342580758    4.55113084491897
H         2.57324848327931    6.32204081511575    7.05374216672394
H         0.96556233636530    6.98973574981345    6.82259012077600
H         1.06383497420983    4.54166878476675    7.42098402828849
H         1.85179357682304    4.22310963434327    5.85527356801818
H        -0.05479113315078    2.73677149762250    5.36404332029365
H        -1.00697025965045    3.17758205632562    6.80580449443403
H        -2.51933216668912    2.49938459463407    4.93194059365653
H        -2.74659541316486    4.20289173816921    5.35322296730890
H        -3.53190633348620    3.49955503070666    2.52247886059359
H        -3.49944864429144    5.03067484016698    3.40937673373867
H        -3.31108828664415    5.27054415988379    0.88720325563886
H        -1.69112541439317    4.52932484523278    1.00236007297639
H        -2.26810988649323    7.42841301590930    3.87394241010730
H        -2.44849366962321    7.44415969096823    5.40627249998003

