70
CSD_code = VOHDOL | q = 0 | S = 0 | Stoichiometry = C29H37MoP3 | MND = 9
Mo        2.09915460952040   10.10446735146569    7.74471550467397
P        -0.31334671495789   10.26579572720194    7.77375261063766
P         1.72606142324492    8.06716725536123    6.55933204276537
P         2.41008443005921   11.16094337679440    5.67381339144655
C         3.03477857310192   10.86400908342361    9.73154427975135
C         4.04864215858443   10.71192158227813    8.75358622468759
C         4.12623009699994    9.34114137266322    8.42418302717511
C         3.14911934549508    8.65578169227121    9.20536932932651
C         2.49403523409549    9.59800215519860   10.01578285373322
C        -1.72095848528226    9.96798435731558    6.62049665265272
C        -1.22867269414544    9.95949830662824    9.33989746873199
C        -0.09091023401538   12.03749870356910    7.88034410259817
C         1.30357810000080   12.12839566749739    7.98854280429843
C         1.81411486275012   13.38671842938797    8.28514310635123
C         0.97056976553978   14.48342247946817    8.40863004512249
C        -0.39908436282074   14.36233424621244    8.23748880816827
C        -0.95086660015625   13.11515907734382    7.98697834199826
C         0.88922531423199    8.07694019860793    4.93606721229426
C         3.19717514500382    7.06524452111935    6.12081161963839
C         1.02192384292296   11.77958198019689    4.64472661125428
C         3.39180377749625   12.71078637575211    5.67814504301462
C         0.43882943733452    5.54333498224307    6.82574916240588
C        -0.31071252771068    4.60839681026439    7.51508787172417
C        -0.77749597633354    4.88637022686221    8.78987416308453
C        -0.48564233615119    6.10623605277821    9.37397753405746
C         0.26336017780022    7.04045804839854    8.68047928447752
C         0.72947399935101    6.77756360212713    7.40107882903112
C         3.11546813676780   10.05305300349217    3.11719903673320
C         4.01613691824413    9.41945215289527    2.27612058886324
C         5.26990874000636    9.05746270106143    2.73593084825195
C         5.62677219159339    9.33513865392599    4.04650423964449
C         4.72312131674513    9.95640212990980    4.88673753151354
C         3.45689758303579   10.31793303108569    4.43797225200674
H         2.82124804603969   11.76766920505250   10.28569756257809
H         4.76111260968045   11.47336428107871    8.46966211160394
H         4.92937290300156    8.86273010313483    7.87934849574714
H         3.06462193968316    7.57904908562348    9.30111882155888
H         1.78223179395139    9.37950258080112   10.79999218848660
H        -1.46957714949721   10.32977952900963    5.62473372017789
H        -2.59320194863746   10.50658305911507    6.99317229158149
H        -1.94455637555334    8.90056908964482    6.58418011157099
H        -0.55474800025884   10.14128720195859   10.17570228785128
H        -1.60283099130860    8.93768057083633    9.37989468018687
H        -2.06586941995170   10.65637724332070    9.40015512841463
H         2.87716346310318   13.53471187487527    8.43789511898325
H         1.39157060274335   15.45354659909487    8.64091294284060
H        -1.03510091519833   15.23271266853825    8.32200811604462
H        -2.02206526111434   12.99610341033926    7.88044644416455
H         1.50454573547470    8.65346687389121    4.24831069158185
H        -0.08404333027769    8.54955368183294    5.04449144121299
H         0.76552603395348    7.06403593518795    4.55384035180565
H         3.86024504504597    7.68241826022579    5.51512761419513
H         2.90820101043295    6.17955611703497    5.55538115537742
H         3.71648182185572    6.75960908559556    7.02798967292541
H         0.40965061462678   10.94967242991752    4.29343000049488
H         1.39033131993299   12.36455628084512    3.80083017219668
H         0.41554797959892   12.41416329197350    5.29449243466308
H         2.77712787808685   13.51581660214337    6.07418946178646
H         3.70689346694257   12.95101075210563    4.66137534456078
H         4.26964012165278   12.58197653276780    6.30639614130358
H         0.79678938307737    5.29773147521488    5.83570653471026
H        -0.53170745894139    3.65473020794502    7.05668228615070
H        -1.36235158395647    4.15184455830638    9.32426295420621
H        -0.83929169465828    6.32730250311639   10.37158475408331
H         0.50705866494622    7.99380419021600    9.12466910519541
H         2.14902123991121   10.34292628510369    2.72970776706989
H         3.73703240709061    9.21264901585400    1.25239193536581
H         5.96904815898384    8.56609827699098    2.07507239517034
H         6.60884981721534    9.06415917139596    4.40835187340429
H         4.98275682397379   10.17405663509915    5.91333346863825

