46
CSD_code = VOHGUW | q = 0 | S = 0 | Stoichiometry = C22H20ClIrN2 | MND = 7
Ir        8.81941247488965    8.27936441356235    7.07620477863831
Cl        8.21954184645021    5.89872461543658    7.35323084801529
N         9.11601992648519    8.20664056758486    8.99964352813638
N        10.96273722184306    7.53595135323405    7.29478008379325
C         6.99722671565869    9.02869194559583    7.71329525409322
C         5.85509085925507    9.48847766675408    7.08395935523795
H         5.78708998646586    9.54091612980900    6.00940781612632
C         4.73030850158529    9.90402917153332    7.80741929900336
H         3.86646817577743   10.25407600073406    7.25946158303208
C         4.69243950860841    9.87207570718999    9.18014180893566
H         3.81099477221574   10.18600958201355    9.71991314165094
C         5.81656866128402    9.41730346740611    9.88015246559748
C         6.94118345762186    9.01922665720353    9.12768544165127
C         5.88845975717463    9.32539828105799   11.30043890120976
H         5.02348087317758    9.63287388816277   11.87130544193312
C         6.99389404716553    8.85877455783680   11.93818842500395
H         7.02164389763351    8.78532094561669   13.01564767477177
C         8.14110887639465    8.44676947233351   11.20623278385413
C         8.09378146851850    8.55236740310992    9.80366752240343
C         9.32268577603671    7.93306382710581   11.76415210958379
H         9.41812887098206    7.83689836336951   12.83544963947302
C        10.34096944544417    7.53952719322699   10.93098976901235
H        11.24399237076615    7.12670441603720   11.35019618665677
C        10.21802598189613    7.67373577679562    9.53749258452181
C        11.22996513483467    7.24821109471366    8.58038413459421
C        12.39184063635863    6.56525704501671    8.94798397567800
H        12.57827157351737    6.32361991655246    9.98122622968241
C        13.29373779749459    6.18382739682569    7.97582248670580
H        14.19161414820880    5.64555297187565    8.24004749693784
C        13.01978554251592    6.50803655152381    6.65576062673804
H        13.69583357209074    6.23958834399630    5.85994993451588
C        11.84407932884369    7.18135487328317    6.37358130048465
H        11.61206487556598    7.44567255325412    5.35338411436995
C         9.12417897058955    7.88221919034198    4.92656500863995
H         9.33519221642279    6.82168294005114    4.85173504523430
H         9.85391707101391    8.54967913190390    4.47891291298005
C         7.82284262193543    8.30285635535095    5.07436092220909
H         7.02343950468805    7.57285025974460    5.11337128695704
H         7.54399761157762    9.29505089267887    4.74013889830674
C         9.47068702179059   10.28456912853115    6.86370021966041
H        10.41262181889928   10.24589584154707    6.30586399423489
H         8.76655338239932   10.86224893282738    6.25927341363692
C         9.72395299291501   11.06656283007695    8.14735149392953
H         8.81293430360149   11.17181093806456    8.73308949364922
H        10.07992347035331   12.07085537822807    7.90597884040730
H        10.48311293105436   10.59107603089978    8.76726172811178

