46
CSD_code = VOHHUY | q = 0 | S = 0 | Stoichiometry = C17H24Cl2N2Zn | MND = 4
Zn        1.80054291149946    2.87216431123114    2.90730257994254
Cl        2.03160200780802    5.04488688552710    2.68288822744630
Cl        2.76347013705699    1.07743389905876    2.00002983264487
N        -0.20574442383414    2.33601031420706    2.52973835192038
N         1.25415964403586    2.34016973130748    4.88211640001920
C        -0.73985037442458    2.03745289035765    1.35402128846550
H        -0.18892733699149    2.37100765054728    0.48598622453976
C        -1.92914382138674    1.34071150020372    1.23379873041722
H        -2.33414335919076    1.11811611371296    0.26002586166599
C        -2.57469935700648    0.93348528386551    2.39116786770431
H        -3.50068416249983    0.38039696428976    2.34141978050750
C        -2.00910020324053    1.24468055137592    3.61561432842320
H        -2.48265489496433    0.94203190460056    4.53725452697713
C        -0.81369828136739    1.95323293155127    3.64501007137517
C        -0.19220183367014    2.37503431173350    4.95208928175809
H        -0.57714399842068    1.72532883741866    5.74886860259076
C        -0.60601434917274    3.82865653063168    5.22953950622336
H        -0.17357066833794    4.47764814055979    4.47132038673700
H        -0.23897271630333    4.14145532994423    6.20404203933651
H        -1.68885848529077    3.92306063847766    5.21014279909931
C         1.94168754688120    1.86048443603817    5.83158599014013
C         1.44677899662597    1.15948869006694    7.07468714407138
H         0.87091469702754    1.82955374643882    7.71417076287316
H         0.81151967300616    0.30774579664897    6.82232190035178
C         2.76018800003333    0.72850556224041    7.73108738078659
H         2.66036427321880    0.46187847377507    8.78230755153858
C         3.33651804432702   -0.38956946293625    6.85146888796159
H         4.17435428800521   -0.88294217184890    7.34175256893046
H         2.58769586991035   -1.15291230316277    6.64031406544820
C         3.77521369081224    0.36063104964085    5.58072447643152
H         3.25095651183952    0.02955781407609    4.68503628008457
H         4.84148335953265    0.25763437121973    5.38801788364850
C         3.44533357345462    1.84245478618969    5.89036740669060
C         4.18392497367270    2.84360659945124    5.03083259578822
H         4.09601775257618    2.58488915897243    3.97633421312767
H         5.24182280298078    2.83516897062442    5.28222103989692
H         3.79505381809249    3.84851200374381    5.18065659958977
C         3.68213106133977    1.92471520030451    7.42418671010009
C         5.12628288892599    1.70972355763183    7.86783896264767
H         5.15749079263598    1.61078582445572    8.95133306281921
H         5.73583344825665    2.56696251701891    7.59256550344777
H         5.57413447364884    0.82399651245855    7.43282870711585
C         3.20612330091764    3.24963084788873    8.02378996757250
H         2.27692166910927    3.59623610279231    7.58059030558193
H         3.95374916697892    4.02050092859260    7.85419123304521
H         3.06573889189156    3.14689626707751    9.09841211251922

