34
CSD_code = VOHHIM | q = -1 | S = 0 | Stoichiometry = C9H13O11Zn(1-) | MND = 6
Zn        5.98159565714500    4.88211961688237   10.04662949139220
O         4.68517300224188    5.28608805337760   11.92871997571985
O         3.59865277794806    2.93104614021462   16.02661821145718
O         4.58874116548610    7.49250176533883   11.84368805952775
O         1.31708084377601    9.25945921190513   16.09027775036619
O         2.16190184484189    3.85773800569329   17.49088893377225
O         5.22230286179845    2.61829100324286   11.65679516734386
H         4.92243556430513    3.43854054925227   12.07836459583443
H         5.72820195819908    2.14868453370037   12.32261258152556
O         7.13024048931124    7.06184254527737   11.07595574197742
H         7.59971148260989    6.96471577678766   11.90632774616082
H         6.23580524420127    7.39480193670021   11.31276453374032
O         3.38544632299913    9.41893989576313   16.98813581575575
C         2.87403201672407    7.54896084208758   15.67373445500005
C         3.78155725706401    6.39403268241862   13.79362444897400
C         4.38909649934273    6.40763944126962   12.42893888910561
C         3.07913076410552    5.20015594033617   15.75845311647841
C         2.46033160428782    8.94588745856710   16.35634974051581
C         3.41124147539237    7.58948500481293   14.40692879038536
H         3.55201780474103    8.52102657871973   13.87918523094223
C         2.91948712143645    3.81482163901716   16.53672899208215
C         3.61035635137541    5.19839577295523   14.48509857698653
H         3.89822987321819    4.25985668805012   14.03788596059079
C         2.69158515710077    6.37724694195905   16.37838632976685
H         2.26360494186612    6.34913858766684   17.36835918176564
O         3.55292106565310    3.93280807236505    9.74733214549463
H         3.45235401244259    4.37687621164209   10.59926918361677
H         3.77409748763723    3.02622570907393    9.98347939661271
O         7.14710439637473    6.57422173719105    8.26032002945130
H         7.46915956507336    7.02839310955542    9.04749934389321
H         6.25126610036046    6.90710689701427    8.13807764830083
O         4.48295721181111    6.75281090910333    9.24624390576588
H         3.62602644284838    6.34454477124316    9.10516745626507
H         4.45075363669242    7.16579597103378   10.13975857285207

