52
CSD_code = VOHHAD | q = 0 | S = 0 | Stoichiometry = C24H20F3IrN2O2 | MND = 7
Ir        9.42523140611125    8.07624236406964    7.46558695770975
F        10.43906160874923   12.92719327327740    6.38697630044095
F         8.37310574584739   12.30815306107148    6.49010371937841
F         9.20856570132937   13.53604965846649    8.05186689122293
O        10.10156864110156   10.24232813157296    7.21553605864676
O         9.82354446881378   11.20801463858849    9.22095211441994
N         7.47688827125762    9.16031798773323    8.04978272062861
N         9.53203859769001    8.29073230437941    9.41729519792146
C         6.53002620605781    9.66781770769780    7.27636352604801
H         6.48130447788764    9.29608238312267    6.26454531143833
C         5.62841653129134   10.62767219902705    7.70175231908601
H         4.88989882841313   11.01670896256079    7.02006866876594
C         5.72014197225922   11.08449345250268    9.00704247051378
H         5.05742545699504   11.85419573117188    9.37230364828216
C         6.68252710847566   10.53789813066540    9.83293444445504
H         6.78932050597294   10.88521900495637   10.84629423694981
C         7.54936175829176    9.56943840412995    9.32600518810547
C         8.63633876473926    8.99073126827289   10.11201157909117
C         8.78429702574228    9.16718198520954   11.49724016016654
H         8.03231394242085    9.70501909028663   12.05007480622373
C         9.88504808795478    8.66647648514175   12.14810235551115
H        10.00408129776079    8.80191948861979   13.21278103513409
C        10.87220908249251    7.99503361635131   11.41088173671622
C        10.63774701400332    7.84004666985316   10.03218933870940
C        12.08388594448073    7.46743502057125   11.93796596757375
H        12.27355779072294    7.58077060185103   12.99518963213186
C        12.98318797146653    6.84522392077574   11.13255017055515
H        13.90160043050827    6.45370290644439   11.54658333060974
C        12.76634243064072    6.69258971435777    9.73127701346790
C        11.57298194479413    7.20198022783361    9.17996290762649
C        13.67324974242948    6.07221057071703    8.86246084749631
H        14.59880270662264    5.66975442617934    9.24688021632277
C        13.36784831418797    5.99029256049806    7.52636629826769
H        14.06264047209453    5.51342438039206    6.84947472216510
C        12.17692215443055    6.51099359693575    7.00254862719799
H        12.02571103797990    6.40227802136897    5.94118855856124
C        11.24254590986698    7.13662952921050    7.80503290869156
C         8.52767633930451    6.17544588802213    7.58855770133895
H         7.47922398347404    6.33206160654462    7.31223268794519
H         8.96136155666550    5.50026606333868    6.84511302491665
C         8.55065725514203    5.45528352349895    8.93120964758281
H         9.56796849349064    5.24049809208480    9.24884660375644
H         8.02292467884172    4.50390165446824    8.84224983541978
H         8.05540791198008    6.03315914127083    9.70893733107456
C         9.97807324024509    7.81021729668494    5.32340987871209
H        10.83160350875026    8.45233172900451    5.14655148974999
H        10.09030864340242    6.77527611051865    5.02378231692413
C         8.72004555762737    8.35961983227396    5.39933185890512
H         7.85004241953823    7.75281365496842    5.17001147190850
H         8.60198295530072    9.42976453494016    5.27992116891314
C         9.86456035391065   11.17230311090282    8.00433853123033
C         9.48932375043793   12.50940628561489    7.23793446539295

