46
CSD_code = VOHJAG | q = 0 | S = 0 | Stoichiometry = C17H24Cl2N2Zn | MND = 4
Zn        8.73010343534764    5.14603919651345    0.10333216448087
Cl       10.28011817578788    6.70797103813475    0.29194352228233
Cl        6.56397498159998    5.33521436660225   -0.32554507544098
N         9.14527694593781    4.07499269240209    1.87645687915763
N         9.20558267958600    3.25041426022054   -0.75392309960928
C         9.45014755562109    4.59809731278742    3.05538879452595
H         9.21133699206783    5.64400584637545    3.18501526986305
C        10.04516065893185    3.85890588989989    4.06250995954609
H        10.27426900532006    4.31646374830803    5.01112263831416
C        10.34269438336260    2.52720825198260    3.81647487845912
H        10.81256768179091    1.91721321687158    4.57339057913314
C        10.03148999860540    1.99115737513670    2.57870347158867
H        10.25420124666910    0.96014341876701    2.34914006605844
C         9.42885074758500    2.80360604483095    1.62567273869897
C         9.00666297733745    2.25920211508945    0.28579454999230
H         9.58520800594327    1.34881115643766    0.07526426243460
C         7.51137966595442    1.91365378482138    0.37445646354330
H         7.33343205712260    1.23009812381504    1.20104021757163
H         7.17164483486503    1.45068404707660   -0.54798501936358
H         6.93760702108666    2.82455669918960    0.52833429458672
C         9.38342996748720    2.88277050982656   -1.95338110614478
C         9.49791185177746    1.47088545938195   -2.47714594715187
H         8.64496994477659    0.85413476069981   -2.19219556453048
H        10.39801633845654    0.98828187764295   -2.09152533237526
C         9.57072222618142    1.69858360797418   -3.98832754298419
H         9.95603165800017    0.84607249691014   -4.54567698620029
C         8.16723011756737    2.14781663626757   -4.41465063217775
H         7.40158473707287    1.46984433204871   -4.03782547096401
H         8.07412959898545    2.17273892417964   -5.49916016551078
C         8.05759228117554    3.55232058680752   -3.79557454413686
H         7.26879013311329    3.62740227331116   -3.04730443275977
H         7.86945190823233    4.31881378938570   -4.54519536144072
C         9.44904750906943    3.79181007797865   -3.14916707146188
C         9.76569549004893    5.24953851346001   -2.91276313142600
H         8.95352428867485    5.73275115578499   -2.36790602016568
H         9.87378677342333    5.76360150338360   -3.86497393956092
H        10.68569296407186    5.36708647674223   -2.34543731043628
C        10.39754401564634    2.99652422213368   -4.08553113982161
C        10.50840244821391    3.54506311226607   -5.50523891982594
H        11.08069746483666    4.46959810631698   -5.50548119881361
H         9.54368087820848    3.74625307498082   -5.95652805877179
H        11.03402976950776    2.82493135975310   -6.12946096784094
C        11.81477657107236    2.87475145020227   -3.52202310086259
H        12.34521441736391    2.06020848402870   -4.01258847168155
H        11.82215284911482    2.70228336290555   -2.44916781816127
H        12.36478474741482    3.79439526035978   -3.70655732060259

