83
CSD_code = VOHJUA | q = 0 | S = 0 | Stoichiometry = C40H30N8NiO4 | MND = 6
Ni       10.29299866748249   10.53841984146356    9.47786281744862
O        12.31668945662332   10.50023878497600   10.15843871619284
O        10.71466558421304   11.68751371139950    7.61132653908267
N         9.92732032986300   12.23332559393779    9.99440508391164
N         9.57644451581701   10.14045042646246   11.55489419958676
N        10.76633884437845    8.86946597333676    9.01045419143320
N        10.08719936266529   13.23276532270144    9.15727477944549
N         8.42179863421790    9.91747736410071    8.55139814377591
N        11.95633403583802    8.41890605659943    9.32543228146130
N        10.25498220823104   15.74160397994285    8.49517236558013
H        10.07466661089149   14.93008557409184    9.10310772014443
N        14.75855667634876   11.16241407355465   10.74016515668216
H        13.78518264976577   11.33542990170029   10.46999393946753
C         9.43566293924157   11.35792033001332   12.11861866598509
C         9.61451693721859   12.47204720827381   11.23362093437851
H         9.51193631115278   13.49128609409003   11.59187114253724
C        12.73542659948122    9.32657790547620    9.92733333789721
O        16.62295946286851   12.20235379262885   11.57734042717623
C         7.66688127040163    8.01780053635913    7.29824346060989
H         7.86910371659009    7.02979541165469    6.91569303981873
C         8.64029971982743    8.68134506283960    8.05347802934619
O        10.63812649492113   18.00384290802756    8.50546821211942
C        10.72857951819567   13.96087181023678    6.93966846942013
C        10.61919145723554   15.34075412483374    7.22015568971587
C         9.44375364424246    9.06484400477079   12.31055058512915
H         9.57038797070437    8.11083146793986   11.81481588268173
C        10.51008349023961   12.87869601183099    7.92148379530019
C         9.14228547461934   11.50315283064781   13.47944571783232
H         9.03922631590962   12.49101352399503   13.90045802312605
C        14.08759323361077    8.89909467838616   10.30139335986995
C         9.92709198509825    8.12501709203543    8.35366232508477
H        10.20395113873269    7.12633945016572    8.03612578634361
C         7.27008259717927   10.51506941813885    8.30394855001605
H         7.14225982785453   11.50699191058355    8.71788598178949
C        15.07379570039251    9.81848904059943   10.72634375142666
C         9.15518289107701    9.12443866635295   13.66526784453071
H         9.05494436319514    8.21870372940860   14.24107469105344
C        11.09299572344709   13.56228659065950    5.65237339820286
H        11.17572517542357   12.50248412331501    5.46273586897410
C         9.84813906456867   16.96423399095908   10.48938022457652
C        10.28568214192969   16.98100837893134    9.05907349624739
C         6.46601210300736    8.65052568599450    7.05033806413489
H         5.69890849419169    8.16241810840554    6.46764281698469
C         6.25941152037155    9.92654458323778    7.55908863616941
H         5.33587676214431   10.45372668069846    7.38266653926253
C         9.00139343772587   10.37217627363895   14.25690897766793
H         8.77756527354491   10.45477698226447   15.31019395467356
C        14.40754028921756    7.54103960064190   10.23816929560149
H        13.64338886122706    6.85595595984817    9.90668313855855
C        10.87867161953770   16.26116424816468    6.20442132305083
H        10.80291767695247   17.31254855942213    6.42712052221868
C        14.82086571237402   13.53246472017446   10.77137921606735
C        15.51585382125087   12.24641521373634   11.07967022014915
C         8.84691260533366   16.11381031739237   10.94944049687886
H         8.34003805335258   15.44859397374939   10.26489660259304
C        16.33920905380497    9.34455811691635   11.07684659961605
H        17.08556026812886   10.05200419321621   11.39873838813472
C        14.04446721881920   13.68377758165514    9.62490839793474
H        13.91414345770330   12.86262061624097    8.93469232283389
C        10.44388363727392   17.85784970409360   11.37313829326781
H        11.19766279183158   18.53365921618846   10.99819842590377
C        10.07280512186825   17.87761440288061   12.70473502440376
H        10.54636854538118   18.56768921693234   13.38702177898232
C        15.65982418853003    7.08888378074457   10.59261659973143
H        15.89046979902496    6.03554553802594   10.54314293732049
C        11.34397279573705   14.48257465677975    4.65734249944685
H        11.62490202956235   14.15167418960963    3.66914964284566
C        15.00799408049999   14.62014213546579   11.61828850163873
H        15.63209824991176   14.49637429573346   12.49083921179969
C        11.23591225915817   15.83657626045345    4.94044584831669
H        11.43207461307457   16.56836328797535    4.17096230646153
C        16.62384671626955    7.99674040495015   11.01346716672709
H        17.60726956747044    7.64835973755911   11.29248615000560
C         8.46928213027205   16.14534004447970   12.28031708309381
H         7.68364628460477   15.49064750138698   12.63128818471243
C        14.40062354932174   15.83193185691993   11.34363935618455
H        14.53851497424076   16.66779284713802   12.01367957939343
C         9.08795909143776   17.01742253194848   13.16143395567800
H         8.79276273712861   17.03461562560654   14.20039092573767
C        13.46603392375779   14.90645117389362    9.33857454076710
H        12.89551135533644   15.02649840626694    8.43071765272548
C        13.63021943984336   15.97744996520821   10.20151990029718
H        13.16928314805779   16.92639510693215    9.97146229665642

