45
CSD_code = VOHMAI | q = 0 | S = 0 | Stoichiometry = C19H19Br2FeN2PS | MND = 4
Fe        0.09848865326455    0.91896178472745    5.33513492590875
Br        1.38165546052835    2.04862343550893    3.83937583769709
Br       -0.81793515138029   -1.07028140181134    5.44256748411513
P         0.95393667609227    2.27934277324875    7.85436940054800
S         1.69080833720505    0.58736863914429    7.17330495421994
N        -1.05964169360556    2.35511008248471    5.86382918981390
N        -0.71637825051187    2.29756897229331    8.17632632594889
C        -1.58026111737467    2.49885924685769    7.10416180182092
C        -2.90693006215414    2.85678618966782    7.30648135186945
H        -3.29159906342740    2.94228353022393    8.30907620892667
C        -3.72036715776795    3.12066547406798    6.21714449967109
H        -4.75264163149598    3.39520520254734    6.36230702645876
C        -3.16491649201120    3.05772012571553    4.94664377692318
H        -3.74482646026958    3.28980570297251    4.06896334300515
C        -1.84132769889271    2.70019536413789    4.81758716614082
H        -1.36800304982971    2.69444240152686    3.84349498865182
C         1.66874355058648    2.66545183054183    9.48206624858157
C         1.29227732773168    3.83793433259214   10.12964559637968
H         0.55203234844462    4.48434645663880    9.67943648898927
C         1.86570484816376    4.16249251321360   11.34388152810730
H         1.57301420134477    5.06931374214677   11.85184372613678
C         2.82048003378916    3.32790604339964   11.90597486808064
H         3.26883697409116    3.58718934734957   12.85325124412767
C         3.20307576176191    2.16736074352976   11.25420658193477
H         3.94949772211482    1.52106661062840   11.69045780672490
C         2.62989172941450    1.83445777186855   10.03918220317874
H         2.91634194341794    0.93240993993501    9.51693110803767
C         1.28976877853514    3.80776355776548    6.92277096106246
C         2.54161233733610    3.88309523589011    6.32297126325154
H         3.20374860771141    3.02854653251305    6.36738592323248
C         2.91595279224899    5.03159972298183    5.65158022183260
H         3.87935888365229    5.08104093025264    5.16933456449145
C         2.04341353849959    6.10490660436765    5.58517075851766
H         2.32704789158223    6.99816141589866    5.04973976425599
C         0.80316070773524    6.03550239920066    6.19943142680091
H         0.12495432785475    6.87447486403521    6.14754010030195
C         0.42193349468130    4.89162681012167    6.87671475419534
H        -0.54857076677755    4.84098163739618    7.35000244287680
C        -1.19634628643832    1.57062032203147    9.34885343517708
H        -1.98584782827629    2.15174892315438    9.83574858843826
H        -0.35556413951799    1.50017250107679   10.04495253903869
C        -1.69081240768365    0.17353920324858    8.99968173828569
H        -0.89247727509207   -0.40438119963530    8.53916140943668
H        -2.52508442770943    0.21797046996606    8.30317026503466
H        -2.01560596757994   -0.33895678543071    9.90094416176265

