47
CSD_code = VOHMOW | q = 0 | S = 0 | Stoichiometry = C18H23Cl2NO2Ru | MND = 9
Ru        4.46221797826877    2.60553889857247    5.19456325342975
Cl        3.70251950142175    4.53045283851961    4.08905921932274
Cl        2.25714479303265    1.80262089054663    5.09781934442800
O        10.59376527941715    4.13067318772649    2.31770309260282
H        11.05668368186342    4.38796782703413    3.13086455151815
O        10.84552556374036    2.06300392583650    3.11142841925728
N         4.40853857396209    1.83976964594286    3.13231297763964
H         4.03624184598628    0.88617352957173    3.15408633446705
H         3.72055737530849    2.47025030453762    2.69512764269749
C         3.55678428351620    1.10765843966935    8.18517559787111
H         3.88476674024608    0.11135277529528    8.47357874734612
H         2.64371302513131    1.00545375222356    7.59268173346134
H         3.31876075016644    1.68571729935759    9.07530415353926
C         4.59442201770750    1.79568583256311    7.35787943710315
C         4.70250306010367    3.20935693768442    7.35908186236331
H         4.05987336324649    3.79335467331359    8.01014532966644
C         5.70610654006740    3.85805110854116    6.60203128285950
H         5.80424273311379    4.93498700343652    6.67866613812188
C         6.62206521666150    3.12577868768065    5.81631534696698
C         6.45230929329281    1.72097399736338    5.76477166822678
H         7.16658182752903    1.13325761679377    5.19583970897562
C         5.47752109797416    1.05732051340248    6.54367764687758
H         5.44106383258593   -0.02551611648751    6.55795290507157
C         7.78970781111635    3.77741506481968    5.11597482260710
H         8.10558123571965    3.11223976085892    4.30367455313635
C         8.94984279998059    3.90746937582502    6.11046194736863
H         8.65123474811748    4.50927469532283    6.96677380217675
H         9.80001050177206    4.38784681362536    5.63272382212295
H         9.26380128489154    2.92860949751147    6.46620700412314
C         7.42723335084930    5.13690024757598    4.51682785382293
H         6.45487219953393    5.08957267290186    4.03093516514767
H         8.17024861229877    5.42790465830030    3.77859390237393
H         7.39396893196756    5.90609523744882    5.28489483524088
C         5.67828278178636    1.93582977353079    2.51933669483650
C         6.07741925567850    3.13932404240373    1.94299170192814
H         5.38829101577749    3.97076429848188    1.93153339481947
C         7.35587872326187    3.27127604643936    1.43804873884389
H         7.66767138074406    4.21326369335978    1.01341552298593
C         8.24808669614531    2.20613347489109    1.47952121145890
C         7.83397862682403    0.99608204562380    2.02236015241117
H         8.52042915348483    0.16367801988716    2.05657821170109
C         6.55636776448082    0.85536891954438    2.53064665801454
H         6.23959192593861   -0.08846128209621    2.95227061017232
C         9.67341883747535    2.38437465809969    1.02320199213247
H        10.07984378537959    1.44446101487550    0.65170706898706
H         9.74884966614490    3.16410852005686    0.26764896332594
C        10.44658053628745    2.80348518157393    2.25500497644416

