50
CSD_code = VOHNAJ | q = 0 | S = 0 | Stoichiometry = C19H25Cl2NO2Ru | MND = 9
Ru       -1.59642029843689    6.27059012688491    4.50271983441833
Cl       -0.81245540461855    4.60969256809275    3.04106974523686
Cl       -2.09260087704572    4.54892718901020    6.02153047569419
O         0.99712027362760    9.85941863817859   10.25851973873408
O         2.16869015234268   11.03626077745707    8.75288695277517
N         0.41044524590307    5.91373680535935    5.34406652998564
H         0.27147136300305    4.98963316339842    5.78087979176076
H         1.07576233315178    5.83793238322759    4.56889672153790
C        -2.35605448700132    7.06193783236341    1.21404426869639
H        -3.34613356648127    6.97292677939006    0.77214063371370
H        -1.84952514247090    6.09915702362371    1.10598972209485
H        -1.78090789094553    7.80977712056561    0.67299963354590
C        -2.44587066420037    7.39880613645736    2.66718532370188
C        -3.50211267604539    6.87948604522743    3.46494440946410
H        -4.27645131291280    6.28011945504066    2.99671181414723
C        -3.61123198035761    7.22141060686288    4.83020677514199
H        -4.46688211933079    6.86528734706146    5.39293303199507
C        -2.67027411077967    8.07610639680322    5.45273064137557
C        -1.58362374801897    8.51991395253097    4.66642826539795
H        -0.86317302209666    9.20175001947185    5.10886355299418
C        -1.48256175498282    8.21418881441961    3.28743612348337
H        -0.68942745906228    8.65500709859590    2.69512759360603
C        -2.83725489958010    8.57306667389687    6.86796316773524
H        -1.84633448946139    8.86032659191744    7.23976523264474
C        -3.41156104481272    7.50822868816003    7.80241918556611
H        -3.26062026987066    7.80478543723202    8.83701047262512
H        -2.91985739326255    6.55171751693864    7.63729253804738
H        -4.47958802545535    7.38128594788239    7.64206789259162
C        -3.72649218523490    9.82257966853386    6.85072342571809
H        -4.71217111522337    9.58235474748470    6.45697869695378
H        -3.28727941348917   10.60088166239486    6.22981611654392
H        -3.84238987010718   10.20913115504915    7.86001252589005
C         0.74046659559952    6.90897982413219    6.28358162267075
C         0.22926986362167    6.82680033198727    7.57957236186188
H        -0.38083581933388    5.97595419076064    7.84649927991961
C         0.47687223489341    7.83612896176874    8.48625801344476
H         0.07525825462957    7.78206368739063    9.48530260955241
C         1.24949176201979    8.93621131011297    8.11550792935297
C         1.77856913949574    9.00456070516638    6.82776826118832
H         2.38276034127973    9.85914045016945    6.56357650881799
C         1.53078607759500    7.99842489433462    5.91746014209653
H         1.93697962501063    8.05228053779527    4.91718865257100
C         1.53188707093071   10.05277175399816    9.04836785462095
C         1.22604148190259   10.88935978248011   11.22071534869581
H         0.86986862415719   11.84142365863878   10.81079457139464
H         2.30488888192431   10.97827179332980   11.39174703959306
C         0.49194552478612   10.52393801612916   12.49661508067560
H        -0.57486968105376   10.44228588526375   12.30610047545743
H         0.66104919818003   11.29073740279357   13.24674733516034
H         0.85143667763738    9.57084244422125   12.87503607915046

