56
CSD_code = VOHNEN | q = 0 | S = 0 | Stoichiometry = C21H29Cl2NO2Ru | MND = 9
Ru        7.30580818610107    5.74752177440762    1.75857504157144
Cl        9.52694444539652    6.10798625992683    1.08811061241602
Cl        6.70452279833130    5.90657350289285   -0.50351539210001
O         7.92163445714287   -0.35264307837916    5.90094203903598
O         9.89107993426012    0.67142902293248    6.27938949024269
N         7.82713356167563    3.71791318979589    1.05814933922816
H         7.07627485319021    3.38662730680679    0.44523922403034
H         8.67048293880848    3.92617702634696    0.50178256679503
C         4.32168787798394    7.47608253458063    1.39316301539923
H         3.35892253907881    7.01780492814174    1.60786425976182
H         4.58204313064405    7.24958443132806    0.35586725169135
H         4.24216747665081    8.55641266581129    1.49256649846775
C         5.38769320383741    6.93177886597999    2.28826688437632
C         5.28524899825891    5.64041946603802    2.83902717912446
H         4.39610391983593    5.04796617549501    2.65838268771602
C         6.30732147251342    5.14020783857902    3.68041407992684
H         6.17977607933712    4.16530824672872    4.14241647698647
C         7.42102215879558    5.92813132854769    4.05633284154882
C         7.53437357928030    7.20651114071462    3.46536975102354
H         8.36770833796753    7.84772929275350    3.72900658772313
C         6.54409231620488    7.70084507695658    2.58663204879819
H         6.62372405647475    8.71253809844273    2.20170640089133
C         8.38782657357478    5.42836064500146    5.10202569977077
H         8.35197344205037    4.33252445807024    5.09530440154317
C         7.92342353629240    5.91505668366629    6.48033362083991
H         8.59408794009769    5.53985760406610    7.24899877561566
H         6.91652942624388    5.56267376863696    6.69630582499579
H         7.92398174328248    7.00263993738338    6.52014575640164
C         9.82758510780533    5.86294326102671    4.82806799143072
H         9.97921677739469    6.90649882103485    5.09395841129275
H        10.07023139762847    5.73395110375429    3.77531602493791
H        10.51217199914643    5.26196626167512    5.42038174982317
C         8.09754352053582    2.86370150081183    2.14389740474983
C         7.11476593342956    2.00277547242015    2.63272462255070
H         6.15515949401014    1.95380839830431    2.13706055205943
C         7.36231790450731    1.22955680554897    3.74893436040546
H         6.60350957580918    0.56656843086390    4.13340327814042
C         8.59622167180816    1.30552377859163    4.39121326400878
C         9.58446376761174    2.15198947063551    3.88822148503717
H        10.53612546096575    2.19338735014045    4.39505990632827
C         9.34468642819995    2.91749991044043    2.76724909912195
H        10.09807089827886    3.58489251855844    2.37492862112699
C         8.89181824576248    0.52604097826002    5.61775519246794
C         8.05023796557763   -1.12300221068663    7.09442626891249
H         7.85536992724355   -2.16125564839197    6.81169206796599
H         9.07547322537342   -1.02683644567387    7.46649765104193
C         7.04994068364939   -0.65476518679922    8.14864961282791
H         6.04083667454181   -0.72174163351538    7.73596849342109
H         7.11524750107343   -1.33413101706338    9.00035162688518
C         7.32155741789922    0.77660793461561    8.60811364809214
H         7.23388796159987    1.45327572613803    7.75448932600265
H         8.34583630934089    0.84703060225878    8.98003242547174
C         6.34907569071379    1.20973126519429    9.69752596085884
H         5.32304321619198    1.15311712733563    9.33957824060530
H         6.55019685303053    2.23362828216591   10.00323405447680
H         6.44261940736567    0.56641895073130   10.56956569615170

