22
CSD_code = VOHPUE | q = 0 | S = 0 | Stoichiometry = C8H7ClCuN3O2 | MND = 4
Cu        5.67065141926733    9.20263166951507    9.78191494969861
Cl        7.38903087954925    8.23640068530467   10.64589495433974
O         5.19049178377056    7.69341196182278    9.04242185648945
N         3.46553405380739    8.95337586415808    8.26091634244704
N         4.11214207793483    9.90187616565863    8.95521451183108
C         4.36176785929036   12.13936330820043    9.75568228675082
C         5.56215719460890   11.85630358864327   10.46113703435144
C         4.09933762076544    7.80841376804419    8.35710623092759
N         3.63065235964678    6.71368116824395    7.74079369719994
H         4.13958594504431    5.85377052948397    7.83914587349325
H         2.78532348903399    6.76399827677091    7.20526691764978
C         3.69235298829565   11.12442485272522    9.02587059700562
H         2.77901735013835   11.36542756089674    8.49331381368484
O         6.15090816770425   10.69444397381510   10.51215607184710
C         3.83147309142932   13.44365820879945    9.78371326193206
H         2.91808447189187   13.63629022952112    9.24076203426251
C         6.17552263429918   12.91270951018039   11.16682758823324
H         7.08601689096202   12.68470495984431   11.69736874228367
C         4.45186558918983   14.44677261082209   10.47959289420803
H         4.03525373161763   15.44153002909731   10.49404937572871
C         5.63281433673493   14.17171848758617   11.17390344212661
H         6.12611606501784   14.95889259086619   11.72404752350882

