83
CSD_code = VOHROC | q = 0 | S = 0 | Stoichiometry = C32H43Br3N4Pd | MND = 4
Pd        9.89491270078657    6.88073568661086    6.87339705612815
Br       11.84025273036693    7.91907379917342    5.75750493997622
Br       11.10895050482629    6.80142452072858    8.97533304928932
Br        7.89261308481218    5.92284581262094    7.97744935314446
N         8.57231518294919    7.56935293334252    4.22985009210083
N         8.55833263540732    5.45236991978176    4.63544335273559
N        11.02411786645333    3.90056656726152    4.40948474807684
N        11.74433311505425    3.36899889235874    2.42069626312995
C         8.97374480356284    6.64681836042140    5.12673106113097
C         7.88126223841128    6.96713421118129    3.20735614678119
H         7.44701920225454    7.52966050913378    2.40746376903264
C         7.87189192744576    5.64062973722521    3.46011951473012
H         7.42815500551869    4.82889217580648    2.92092566091066
C         8.74496482513240    4.16660864730686    5.26470268120110
H         8.36112486384009    3.40081814291363    4.58550093721893
H         8.17243653474248    4.13732999362453    6.20296675302597
C        10.21999023983946    3.89499679906160    5.60607882877786
H        10.59052319136372    4.69390363123377    6.29450253886286
H        10.29861026326735    2.92788551751741    6.10783624494146
C        10.97581231756691    2.97190126995281    3.44436626720449
H        10.42838315504451    2.05296749310127    3.48060234355015
C        12.28810922266994    4.57996637923045    2.74958096570691
H        12.94332908042953    5.10790136600430    2.08963649319215
C        11.83889884071365    4.90886853564811    3.98862914243907
H        12.03636419012298    5.79155190276178    4.58088591848786
C         8.93446852321319    8.94728027825708    4.23543746314654
C         9.76241999780737    9.42143357772095    3.20877582091726
C        10.11629250754116   10.76288064051693    3.22181938857565
H        10.75495205639059   11.15109716060132    2.44441929575929
C         9.68208705223791   11.60698674176392    4.22500942767418
H         9.98246990747128   12.64411594896617    4.22564006556872
C         8.87170946959174   11.12176112937616    5.22995985238594
H         8.54115271904880   11.78584674970597    6.01322761517555
C         8.47709734571390    9.78896465056653    5.25433035679537
C        10.29164439136913    8.53840486549398    2.09915967836636
H        10.02525693308924    7.49553919982942    2.29856972868831
C         9.67114456727698    8.94689826567377    0.75919744464539
H        10.03790635215552    8.30326927551941   -0.03755999013179
H         8.58559065345904    8.87749670635928    0.78908716232434
H         9.93375100964297    9.97287164903828    0.51617964024100
C        11.81846211636083    8.60334529500444    2.01911214716794
H        12.18215525267370    7.87089711559008    1.30039330523785
H        12.15339076208020    9.58516836919660    1.69930731354820
H        12.25325741332383    8.39259851053629    2.99212735664184
C         7.56583483915588    9.31694418455762    6.36419785014573
H         7.34226983851416    8.25158858506881    6.23365708672325
C         6.23046209600339   10.06379190049980    6.32015557857102
H         5.56343433627983    9.66361897967536    7.08001950017448
H         6.36626301594965   11.12618284056689    6.50679843781708
H         5.75718359201904    9.94300951453167    5.34686922499496
C         8.24813090524457    9.50162696409623    7.72615819950036
H         9.24809753355971    9.02758235671769    7.72851914664308
H         8.38194438173550   10.55550662301042    7.96042111411646
H         7.64205715931213    9.04789373293143    8.50941740643718
C        11.89124898731190    2.68732151368210    1.17874296042063
C        11.00359434773101    2.99536350646629    0.14466162178093
C        11.15277968807035    2.31643732320625   -1.05750649193386
H        10.48326371636616    2.52817157866534   -1.87576586082191
C        12.14779631621228    1.37110393725531   -1.21887066203256
H        12.24659104319905    0.85212462496302   -2.15988200609961
C        13.01730010999063    1.08788378071119   -0.18317724304492
H        13.78983525513273    0.34919885507753   -0.32396954241750
C        12.90863646176457    1.74255790828727    1.03705080408967
C         9.90729374286464    4.02269182871735    0.31032468992337
H         9.96990246907779    4.47385917033063    1.30593125126898
C         8.53327044078082    3.35985182929471    0.18175327084169
H         8.41863466440382    2.56406668233221    0.91562746716935
H         7.74970186623540    4.09690966600051    0.34068739671974
H         8.40013341577452    2.93037113852328   -0.80714779061905
C        10.06341183615156    5.15174460883156   -0.71026410282354
H        11.04189346451360    5.61749087710477   -0.61602538281443
H         9.95582840977770    4.78172157425715   -1.72585966760085
H         9.30212284033197    5.90863382610220   -0.53924885458882
C        13.86375099930369    1.42870983161615    2.16397757246176
H        13.64220623717365    2.07364046143117    3.02020722343908
C        13.69626537324346   -0.02495404238128    2.61382464645574
H        14.34450964342288   -0.22721149859640    3.46248667594297
H        12.66776569885741   -0.22041038722393    2.91087070342553
H        13.95653003517855   -0.71178965890988    1.81322611861500
C        15.30796813398883    1.70570681263807    1.74026497740124
H        15.41697884642366    2.73474141105558    1.40517827238332
H        15.97632278644345    1.54608962988254    2.58236884818473
H        15.61332871952238    1.04666859556235    0.93248236479843

