91
CSD_code = VOHWEV | q = 0 | S = 0 | Stoichiometry = C36H42N8NiO4 | MND = 6
Ni       -1.66631634519112   12.11413217100210    5.89183905162916
N        -4.05487749304762    8.95008205009574    7.13598614311729
H        -4.69181775363634    8.20675875646337    6.90750450114599
N        -2.84161975363410   10.80045777907086    6.81396148057946
N        -0.35373531451284   11.99989597596257    7.30323489121088
H        -0.03246104992817   12.96787243975759    7.44301007762316
H        -0.85496023568961   11.72833978114121    8.15392906438969
N        -0.48153113561143   10.32259022112322    5.12006657411745
H        -1.06563119489649    9.58176776049749    4.74316070985049
H         0.14435236966079   10.62218256845920    4.37512435263172
O        -3.61464160866332    9.58073471179427    4.99251251157292
O        -2.54020159083344   11.44795929178579    8.99487627280465
C        -3.51015380555319    9.76940191203501    6.19616934424984
C        -2.99652228638281   10.70708148035821    8.13934564786133
C        -3.83415998875439    9.44032137490981    8.47118909304569
C        -5.14801699791573    9.78607038028429    9.13525242189186
C        -5.79251707927611   10.97277880991013    8.80717446930909
H        -5.32454943373008   11.65865925243235    8.11577541391381
C        -7.01992723130189   11.28082117195948    9.36490989330367
H        -7.50844031205901   12.20989165990643    9.11009689964138
C        -7.62121728036240   10.40121643082517   10.24889268513669
H        -8.57820890375368   10.64278376752091   10.68714494609585
C        -6.99187815262564    9.20988947166903   10.56691506386796
H        -7.45965684596308    8.51614405789353   11.25002190464112
C        -5.76303017962919    8.90076039276423   10.01119756949433
H        -5.27669898028966    7.96881169435454   10.26026393071471
C        -2.93225358010044    8.55998378328443    9.30136883098470
C        -2.68962567083220    8.90119739776318   10.62770274201102
H        -3.18074394031185    9.76399155015832   11.05032580150969
C        -1.81511810473192    8.14923331191330   11.38970288253551
H        -1.63425361676850    8.41955554826572   12.41957420313651
C        -1.16961558844643    7.05541426729355   10.83627783969769
H        -0.48813782083471    6.46770971394635   11.43353735365537
C        -1.39590784508233    6.72304784820897    9.51200672855462
H        -0.88899244084305    5.87696207950432    9.07092032240234
C        -2.26872790336008    7.47459309292398    8.74470268509926
H        -2.43428266479882    7.21679701592138    7.70854106059907
C         0.77141454614519   11.11272577753572    7.02938208067117
H         1.49026074450125   11.64242100092372    6.39620403402852
H         1.27916728342372   10.81283976154483    7.95445011302824
C         0.28636641723478    9.86008187049597    6.27429816503092
H        -0.39866560145482    9.31015564508176    6.93101395443377
C         1.45849826733532    8.95480066122881    5.89303181577751
H         2.15788405640873    9.49017009623152    5.25298748312368
H         1.10088362112267    8.07865592808938    5.35641879313760
H         1.99014423211500    8.62045705907257    6.78021872984262
N         0.72212020498229   15.27830099117887    4.64771495432714
H         1.35911061510256   16.02157790543672    4.87621116778289
N        -0.49107466968035   13.42787345749201    4.96972924781676
N        -2.97889790097285   12.22841058985014    4.48043307526922
H        -3.30018688138239   11.26043914840741    4.34065318003614
H        -2.47764540598196   12.49994807912677    3.62974755062437
N        -2.85114421942996   13.90571932385634    6.66351877636394
H        -2.26703150244572   14.64653659897970    7.04041489621747
H        -3.47705231758773   13.60617270105483    7.40846005842986
O         0.28192132778027   14.64760271449240    6.79118224972153
O        -0.79242269336138   12.78033534994181    2.78881269043710
C         0.17732713523734   14.45901352391312    5.58752404156096
C        -0.33630410265656   13.52135137999054    3.64433941164347
C         0.50147287282390   14.78802544307793    3.31251602733298
C         1.81537973338339   14.44234974062321    2.64849833441473
C         2.45991414483160   13.25565795303577    2.97651130929451
H         1.99203295490787   12.56979802798295    3.66803246178780
C         3.68731820471777   12.94766881678295    2.41872608630180
H         4.17600249409375   12.01869638534058    2.67374520078928
C         4.28858120857888   13.82731839401210    1.53479018013090
H         5.24564166614865   13.58584808252193    1.09665624311734
C         3.65921875219784   15.01862855767654    1.21684402723336
H         4.12696368252559   15.71239612301530    0.53374233439154
C         2.43036571250125   15.32769988700819    1.77259102015234
H         1.94393416876930   16.25959317203196    1.52343559969186
C        -0.40040095683451   15.66835065006928    2.48230151124290
C        -0.64306452698308   15.32705458349718    1.15599528845688
H        -0.15198530926388   14.46421228281366    0.73342613827725
C        -1.51756302568279   16.07899342778061    0.39396153782366
H        -1.69844797876109   15.80861469433625   -0.63589229897484
C        -2.16302058015648   17.17287125813440    0.94732533560818
H        -2.84447731198894   17.76056636927660    0.35003203995655
C        -1.93668126610298   17.50532971021221    2.27156509516017
H        -2.44357438408609   18.35145660782443    2.71260397596710
C        -1.06387025486575   16.75380561964799    3.03890499095356
H        -0.89832998782135   17.01163910009466    4.07505774184715
C        -4.10405622372511   13.11559570681746    4.75422240933270
H        -4.82293930180649   12.58592262581334    5.38737974896642
H        -4.61177044318984   13.41548323421461    3.82913290814641
C        -3.61901837844510   14.36825447632270    5.50928152694390
H        -2.93396596809398   14.91816168631965    4.85256999426035
C        -4.79115887405660   15.27354663545182    5.89050867909008
H        -5.49057867519421   14.73818830982698    6.53052607765485
H        -4.43354576049057   16.14968152172276    6.42713756768833
H        -5.32277178463356   15.60791037962947    5.00330907370384

