55
CSD_code = VOHXEY | q = 0 | S = 0 | Stoichiometry = C26H18F2N6O2Zn | MND = 6
C        -2.22174288752902    4.06595459312411    4.35634065621801
H        -1.94255026307382    5.10208947559470    4.21938339032260
C         2.41770135693892    3.12174553022232    4.23037389515072
H         2.13775910516789    2.07682286663535    4.23730460505120
C        -3.28071793946637    3.71578636993086    5.17925769430649
H        -3.84705643751191    4.47428402836788    5.69502594618699
C         3.53306005117455    3.56545740182890    4.92350471989131
H         4.14303161297589    2.87245473429425    5.48007233759171
C        -3.58923610877971    2.36805132943966    5.31778527952429
H        -4.40659215474372    2.05494926863125    5.95064260233105
C         3.84014567635623    4.91990008541763    4.87921950986290
H         4.70065642300251    5.30459603547551    5.40662761846356
C        -2.83768877085028    1.43698551224696    4.63060191941589
H        -3.04853210146675    0.38143281581925    4.70637793469398
C         3.03079822434509    5.76432716553286    4.14723960637620
H         3.23800651696971    6.82133295805764    4.08237329208769
C        -1.79083322022720    1.87642030794769    3.81119168580093
C         1.92807342692720    5.23250393370697    3.46780296877639
C        -0.98541067239314    0.96628357825201    3.04094244104790
H        -1.13781856941418   -0.10613990442254    3.12203613421895
C         1.05778432294002    6.04713147308756    2.66213036022011
H         1.20644524622575    7.12169554446937    2.60651455488717
C         1.46806390531814    1.56215387897783    0.72391742359631
C        -1.56667463486602    5.18973978825098    0.63222706346315
C         2.40535752710874    0.83851827863559   -0.16311276600062
C        -2.57706207007763    5.80781809954497   -0.25438066824998
C         3.22953751914927    1.56715299409890   -1.01835115866244
H         3.15843680086390    2.64403624251082   -1.01063694970884
C        -2.65278212899189    7.19111765661063   -0.40325663772179
H        -1.95684845709718    7.80843804044723    0.14077262742512
C         4.11412700256179    0.92040350911654   -1.85877688045692
H         4.75918694645821    1.46553476190073   -2.52990910974309
C        -3.60231503517972    7.75037307248408   -1.23553112648429
H        -3.68032391729034    8.81825439130749   -1.36736891841046
C         4.16216776445545   -0.46255282774204   -1.83012128906439
C        -4.46979549093608    6.91144519516808   -1.91498048904559
C         3.35406449327727   -1.21135225662612   -0.99092212115474
H         3.42431831777104   -2.28779778648756   -1.00367223199780
C        -4.41526105830639    5.53439834027494   -1.78668978343463
H        -5.10834655246356    4.91685016104763   -2.33619381442297
C         2.47260495366773   -0.55318673644076   -0.15608481181346
H         1.82419646533993   -1.09872899882154    0.50974290530543
C        -3.46219599397703    4.98710908020528   -0.95046155676970
H        -3.38380889637952    3.91821227843184   -0.82349508895248
N        -1.49752552313354    3.18157814006232    3.69772168511054
N         1.63801140094477    3.92315912864281    3.53019579446114
N        -0.11236504859459    1.48566343330831    2.25110635495347
N         0.13016140928618    5.44013605158875    2.00872864516803
N         0.68959250024368    0.77094227917254    1.48622518628229
N        -0.73560807436658    6.06254820721270    1.23286508024544
O         1.44345692243280    2.81172196058543    0.72989733173322
O        -1.53257179513408    3.94936350229375    0.78104416311583
F         5.02558817536409   -1.10318145947967   -2.64628269474680
F        -5.39957992678259    7.45537664151727   -2.72839007636520
Zn        0.01090966175543    3.46188984853482    2.11462475992404

