73
CSD_code = VOHXEV | q = 0 | S = 0 | Stoichiometry = C16H44B8CrSi4 | MND = 10
Cr        0.41128606977498   -0.38034839914633    0.03844345144596
C         0.77626209821593   -0.38602671468469    2.04628781006005
C        -0.70297627359545   -0.44505801980428    1.83663862397255
B        -1.19083672281289    0.73138576471244    0.97672181211922
B         0.16633671088065    1.61398656941511    0.60466576296046
B         1.43973923115409    0.84013470716225    1.30866308138091
B        -0.04121861738174    1.08323563118367    2.25722456155476
Si        1.87115087000934   -1.45956320084660    3.14982731386907
Si       -1.87303691943410   -1.77641658859050    2.46807629609792
C         3.31579440203340   -0.39954503685101    3.83120291303687
C         1.10644312714947   -2.25475988923312    4.71549867489963
C         2.60805588289524   -2.79231889551777    1.99366086278871
C        -3.52947107272098   -1.64057619318612    1.52528611449598
C        -2.27763172629008   -1.61397230632563    4.33719891587615
C        -1.16503862028403   -3.48688199057256    1.98350821658293
H        -2.31651449614091    0.90883147326497    0.72847439158422
H         0.17990946356508    2.62192525939485    0.01516693630155
H         2.56078874663076    1.12959698510739    1.45058449863469
H        -0.19449579825434    1.58748341322565    3.30938944924185
H         3.88013306989963   -0.94470190306444    4.58243924433153
H         4.00761418723534   -0.12014960342495    3.04488869930310
H         2.95933290143923    0.51652176184325    4.29207269919256
H         1.85409193050382   -2.86836917564294    5.21089612075565
H         0.78939810055329   -1.49933562666801    5.42808340486033
H         0.25421871839849   -2.88825333516499    4.50630194369702
H         3.34759655538334   -3.39131456855249    2.51568923539618
H         1.85517751816455   -3.46991325681758    1.60767510663727
H         3.09656641949086   -2.33273771211750    1.14085466204939
H        -4.20907277077322   -2.43469069583905    1.82020503795042
H        -4.02991707923361   -0.69766984829722    1.71693862752963
H        -3.37643340430572   -1.72203323408327    0.45519204330304
H        -2.33235990522286   -2.58482446974287    4.82028525330747
H        -1.53745075427706   -1.02495377387905    4.86746679625299
H        -3.23819442831052   -1.12743262849647    4.47779168808433
H        -1.91324174134560   -4.25942053074473    2.13359830341835
H        -0.88888092765914   -3.50045421787954    0.93357530074834
H        -0.29196182268097   -3.76936890567821    2.55932084182757
C        -0.52280652982740    0.16315147024889   -1.92223627417456
C         0.87239567668963    0.60526671059201   -1.90305095997854
B         1.85706597879628   -0.52013266554137   -1.49581639119834
B         0.90236533810660   -1.83739222657095   -1.29416390006389
B        -0.65298904642649   -1.31430212491254   -1.51323513405857
B         0.59055334039881   -0.88169822262432   -2.71562750497455
Si       -2.00657418150646    1.09555375653593   -2.63666097564861
Si        1.64179659042227    2.19979256641628   -2.58358411230962
H         3.01847027767204   -0.38837158081215   -1.54572167151790
H         1.21221034925747   -2.93614125483913   -1.00987876805576
H        -1.65926310432154   -1.90936865292984   -1.51161603909313
H         0.63758345521733   -1.00823345687869   -3.88073874455664
C        -3.57193328028256   -0.00136874342168   -2.51509203968725
C        -1.71237409803567    1.36418789225001   -4.51488551488607
C        -2.48346800665489    2.73825704443993   -1.77924708271441
C         3.11296507536633    2.70517914136232   -1.47290301552386
C         2.33774285807461    1.75534180319760   -4.31772624079484
C         0.59972082142286    3.79030784383100   -2.79589620291380
H        -4.43168259298720    0.50900324444628   -2.94007813083266
H        -3.81201133765339   -0.23462483851260   -1.48363827865014
H        -3.45467051538796   -0.93929643283064   -3.04665412002885
H        -2.53596939927556    1.91276618981825   -4.96351561818902
H        -1.63814788545593    0.41108027644784   -5.02949768461164
H        -0.80130385634118    1.91459002136522   -4.71961142843275
H        -2.78893613188849    3.48078229085826   -2.50985724976076
H        -1.67928654281969    3.16083028669868   -1.19385508172463
H        -3.32166899030962    2.58316620052260   -1.10885046400364
H         3.61158475419518    3.58247796479904   -1.87387847357777
H         3.85036726777431    1.91544639538262   -1.40008499545118
H         2.78818728839732    2.94138061738237   -0.46701906784694
H         2.88998486052943    2.58615682859095   -4.74747898915993
H         1.55284578437382    1.48912611599672   -5.01829851352760
H         3.01265529635603    0.90842208931811   -4.25432918580429
H         1.18075383883252    4.51950412269077   -3.35390873206703
H         0.36014674537858    4.24092438956631   -1.83970901342638
H        -0.32747302076458    3.63622409276485   -3.33144909646325

