111
CSD_code = VOHXOI | q = 0 | S = 0 | Stoichiometry = C43H60AuClN2Si4 | MND = 2
Au        0.81194032615327    3.00917814616459    2.67087340463246
Cl        0.70677584340400    0.98870245163874    3.65701857978970
Si        1.51511330704144    5.73269076519415    6.10867306406587
Si        4.49543960876226    0.98224245839091    4.88356756957756
C         0.96931349566884    4.81397767405370    1.82086275534914
C         4.33109763422014    4.77808860918494    3.17044470540438
C         3.41991335995962    5.46155018214394    3.96184151156514
H         3.19195784779797    6.49245878881009    3.72735735640917
C         2.79666774436271    4.83684335009477    5.03494047359962
C         4.04430683975802    2.80069590992915    4.53934630412264
C         4.64180992726582    3.45958008603717    3.47142129025942
H         5.36097654336479    2.93956164399184    2.85313020856367
C         3.11998105056762    3.50793827909548    5.29681796710989
H         2.62812537743004    3.00833080082838    6.11740214798043
C         6.33172430195806    0.96677433571839    5.42269941730320
H         6.97173466335804    1.40783466757849    4.66467968062112
H         6.67917605190234   -0.04686336004441    5.59550765727795
H         6.48032396719556    1.52635286085508    6.34116738993158
C         4.28816975683140   -0.00529910490027    3.26714338440934
H         3.24417947798206   -0.01045207460571    2.96978322528255
H         4.59897040186346   -1.03807222573199    3.39319390032258
H         4.86681715679580    0.41559862048739    2.44959874220839
C        -0.05740346045564    4.66291057781206    6.22478061115727
H        -0.07877222048983    3.89720097878331    5.45351852660196
H        -0.96580473230856    5.25026372978457    6.13102819761113
H        -0.11032351613163    4.14893796896485    7.17840710786908
C         3.40350450584765    0.23732098792648    6.24720077980495
H         3.41540207334229    0.82815849423677    7.15826759722634
H         3.73125545746153   -0.76617230897491    6.50177283236605
H         2.37804264012638    0.16914167470238    5.89949036032101
C         2.24055766608490    6.03416272829080    7.84922366895908
H         2.52516626410949    5.09689949411072    8.31759203534122
H         1.51671969638022    6.51946463250344    8.49729154311942
H         3.12529262092114    6.66311047114942    7.81286623440211
N         1.99324445328607    5.26024157352857    1.07626893167171
C         1.79205104392700    6.56471990653989    0.72510264421169
H         2.49676613215132    7.11999712649649    0.14178982827841
N         0.11472729948378    5.84824598123466    1.93214639259577
C         0.60634334477730    6.93587247586578    1.26321376150332
H         0.10606221534244    7.87894015525194    1.21293588733980
C         4.38469347461992    5.26498423429882    0.72450893799636
C         4.98547655263313    5.87711052677534   -0.36635978236794
H         4.56851240997897    5.75946000886868   -1.35483815887925
C         6.12917545131172    6.64144624556105   -0.20737114802360
H         6.58522614123209    7.10775383201937   -1.06805901946405
C         4.94702278510025    5.43160362851605    1.99405842705440
C         3.10963178721686    4.45622345899018    0.60901800899367
H         3.17036414920881    3.59736125221430    1.28919806772977
C         6.09138759549654    6.20305810088650    2.14415672898799
H         6.51583524406147    6.32151514547282    3.13041275597497
C         6.68250566241793    6.80782654680363    1.04965254120032
H         7.57305567050561    7.40518399744279    1.17642543829350
C         2.79374926632763    3.94018716429465   -0.79429220179481
H         1.93173709980313    3.27795272128958   -0.74493834822698
H         3.63979215943787    3.38231388131676   -1.18546707407618
H         2.55842491570239    4.75750322626606   -1.47263456703511
Si       -4.36150549401731    5.87961970413170    7.06372329617663
Si       -1.97352973761233    0.70034520144049    6.76954637120392
C        -2.60014596214059    2.27424456909608    5.90087269935188
C        -2.01455278291281    4.71676791870897    1.78458498683442
C        -3.41189570887400    2.76871454567538    1.63806453983785
H        -3.96310061878367    1.98391706778277    2.13478945180820
C        -3.46566786061383    4.60124631512382    4.63613421451809
H        -3.84616745437923    5.47736753305410    4.13268845627070
C        -3.17637658526890    3.31496182012690    6.61845431034460
H        -3.29066483336578    3.21009736711860    7.68756880405414
C        -2.45323782957728    2.43295574303564    4.52812601130617
H        -1.98860380351599    1.65070895087967    3.94909309600471
C        -3.61936182219136    4.48626919421046    6.01218908927728
C        -3.38063482169044    2.82803174811707    0.25908218592057
H        -3.90233611829908    2.08634689612142   -0.32706428024459
C        -1.89764150161091    7.08360022243519    2.62030354325931
H        -1.28658477564824    7.81721149655560    3.14188921719631
H        -2.83105600424754    6.97626892519147    3.16298502145308
H        -2.13169595400596    7.44407711387236    1.62065519270323
C        -2.74783758457710    3.71166474517311    2.41977045550498
C        -2.00119065703620    4.77485771465128    0.39574209107115
H        -1.43886377283978    5.55512662806890   -0.10000550976655
C        -1.19324187722112    5.73031156433540    2.56197939020775
H        -1.03757598981313    5.35701594517094    3.58044212858378
C        -2.86932368582689    3.59442758259932    3.88714859386115
C        -2.68036407058207    3.84475244221474   -0.36723811459196
H        -2.65549017474526    3.90889960267296   -1.44499586697100
C        -0.21111347383329    1.03328403005143    7.41455471902046
H         0.43253704847765    1.30452319462914    6.58402987395494
H         0.21133570357335    0.15094398374975    7.88587353659481
H        -0.18481802681462    1.84203518999464    8.13981578369297
C        -4.96482041106631    7.31435112037547    5.95750395738742
H        -4.14238235989500    7.78719223140379    5.42880932199527
H        -5.44945600055253    8.08140348680545    6.55351034380025
H        -5.68452968690308    6.97420697584978    5.21917753293587
C        -3.13787814162690    0.32797181365443    8.24126811300854
H        -3.04098239438537    1.06995088606544    9.02755558499382
H        -2.90924098474411   -0.63831565900492    8.67945506142888
H        -4.17835125050598    0.31014190529556    7.93202319532295
C        -3.01119014301947    6.53936263770968    8.24459952405161
H        -2.58608612580967    5.73586766110143    8.83786758010135
H        -3.41388827557978    7.27788319263168    8.93140410666019
H        -2.19508849577532    7.00637678763820    7.70064108646352
C        -1.97800614784726   -0.76341868082280    5.55695789937529
H        -2.93674773271763   -0.87966691517251    5.05955614836256
H        -1.75362870808930   -1.69649205987494    6.06518773759992
H        -1.21914437334210   -0.61577744083767    4.79533519488736
C        -5.82960261558551    5.20254985045591    8.07615423258198
H        -6.61779873861032    4.82862332986605    7.42956574997406
H        -6.26051765392448    5.97107921630615    8.71088679393679
H        -5.51870929167675    4.38372267571893    8.71724353233950
C         1.09265887212120    7.42473345565906    5.32310007851533
H         1.91863072579918    8.12305159161558    5.41704717216470
H         0.23112041494168    7.87339361360955    5.80836706810447
H         0.86360921648004    7.32809988448183    4.26644141350673

