61
CSD_code = VOHYOJ | q = 0 | S = 0 | Stoichiometry = C20H26N4NiO10 | MND = 6
Ni        1.31616121648211   10.55234807596585   12.97588010118607
C         0.79239345769444   13.21288547053709   13.02289212458390
C        -0.25903890531561   15.09206241466575   11.75308219251387
H         0.23258551125484   14.74620477675328   10.85667417606649
C        -0.07745643144500   14.41034290727200   12.94982735720734
C        -0.74893620145930   14.82686112172926   14.09382755941312
H        -0.63665682548671   14.27529120023657   15.01451478775147
C        -1.57134240547082   15.93783290043735   14.04364391058724
H        -2.08942003310311   16.25783579312331   14.93472804093845
C        -1.73449776885400   16.63053793017881   12.85602417807032
H        -2.37780107794946   17.49660373894035   12.81959283996306
C        -1.08317337922040   16.20260288477427   11.71177121273047
H        -1.22106102264926   16.73035267444855   10.78003271526141
C         2.27698025253814   13.38457492037627   13.29282774548157
C         2.89732805024212   14.18469987025966   12.14093348171222
H         3.96530225879166   14.28451913409479   12.31620697312856
H         2.45137306694682   15.17155090193545   12.07197607661492
H         2.74774711586055   13.64729870375338   11.20797727491338
C         2.48790414333053   14.09095075282612   14.63292926091583
H         2.07140141303783   13.49437822440000   15.44290359133452
H         2.00497660429039   15.06398347351596   14.63375435342735
H         3.55257357788668   14.22763970365316   14.80976656304858
N         0.30661077824226   12.04602092233669   12.84665036304824
O        -1.00738421618994   11.97407442917418   12.49918583919806
O         2.93245398490792   12.11663848843925   13.30024082672514
C         3.02158523098121    8.77799861271569   11.83476993357725
C         3.97808771881846    7.64635860385457   11.83546173487117
C         3.48465634430365    6.34706356580621   11.79591152513960
H         2.41934370942629    6.17682276503518   11.77007448697436
C         4.36090219117751    5.27697131959086   11.80560852196241
H         3.97293757624448    4.27037783203120   11.77462243723278
C         5.72682946558266    5.49580744709538   11.86341981293746
H         6.40830952478304    4.65871905983139   11.87299263792198
C         6.21712474040365    6.78903392221907   11.92499765576854
H         7.28082863298818    6.96316078302453   11.98689315385186
C         5.34756151317467    7.86514874958539   11.91618349288037
H         5.72869689567107    8.87251711347268   11.98507551790216
C         2.65322613486553    9.44586386850200   10.52160442793929
C         3.91109782255629   10.09276182498036    9.92896833773750
H         3.64515199570872   10.59831755334947    9.00429515860304
H         4.67020774573449    9.34506210986997    9.72334842709651
H         4.29910815601805   10.82954419649896   10.62783572139038
C         2.05402548757597    8.41845089215869    9.56003072324816
H         1.14581087251307    7.99185169121766    9.98256232175762
H         2.75955681351518    7.61460032835752    9.36987453628392
H         1.80861655941872    8.90095235709067    8.61637381156210
N         2.51965158519025    9.20352676515311   12.92822373246018
O         2.97840818063127    8.63376583415014   14.07637281002977
O         1.72522940438180   10.50654516010628   10.74456629918405
N         0.43787404859923   10.69108233790998   15.68793422563782
O         1.62241892552900   10.66178417780254   15.20519518715377
O        -0.47685650223104   10.67305553070136   14.87932101863833
O         0.29441827269896   10.77190813092256   16.87662926217791
N        -0.52482789792363    8.37392909203000   12.80972542253509
O         0.25771593094343    8.28686018476312   13.74344487571290
O        -0.39313577834683    9.39708668318819   12.05343085486385
O        -1.36222583340102    7.55606388457128   12.54541342052360
H        -1.23176097393314   11.01449041096964   12.49223989754504
H         3.05499549353204   11.84548874605471   14.22575555868841
H         2.42925833167914    9.01105828663707   14.80201649594996
H         0.83114851682414   10.17207876492230   10.55798301643633

