33
CSD_code = VOJMEP | q = 0 | S = 0 | Stoichiometry = C8H17NO6Zn | MND = 5
Zn       -0.93766772370486    4.57078269386030    5.12960153965407
O        -0.91154775315692    2.64403436212390    5.46611250001564
O        -1.83268509395272    4.89593688324147    3.00179139542086
O         0.33600280434331    3.36151998181757    3.83776463593910
O         0.63236304298979    4.86920296832903    6.75887420005257
N        -0.00622228632917    6.34094396093743    4.52974847146973
C        -0.06671751070776    2.43140362807678    4.56377763993571
C         1.29334195427583    6.49706929466138    5.16081618897692
H         1.69749395979257    7.50984879376329    5.03107460207104
H         1.98375340103761    5.76940808360223    4.72481513914831
C        -1.43253165506252    6.18981281871137    2.59705418367259
H        -2.14815576408953    6.87843178830822    3.05302836837240
H        -1.48905101367016    6.27758361310848    1.50515276274401
C        -0.02205384227989    6.51823332712437    3.08813002294397
H         0.69461064408668    5.81963713146735    2.64374658291799
H         0.24377412459081    7.54286257751308    2.79601886997250
C         1.12423540448449    6.19616603704572    6.64652081983309
H         2.08717343188141    6.27644652706385    7.16741586057255
H         0.41441649698531    6.91231753777695    7.07583897921364
O        -2.05141253856048    7.45251949245854    5.92072324527864
C         0.44683155069075    1.02600051152152    4.35482219082352
H         0.10636286016164    0.66434075140918    3.38725656082371
H         0.07547706045548    0.37772794310446    5.14123196712608
H         1.53350353765823    1.03688968920838    4.35152454778557
O        -2.35257587774534    5.26559882327694    6.18379436204704
C        -2.69405200957782    6.48246637453441    6.32892839412364
C        -3.98812582142198    6.70018435588413    7.09858022512935
H        -4.26705227657702    7.74945971878914    7.07059930188079
H        -3.84519186045081    6.38435860297814    8.12934513075369
H        -4.76998402155569    6.08602824015997    6.66108361225349
H         0.21596175683497    4.74188870930578    7.61787803343902
H        -1.22747195563349    4.25872476537071    2.59383361213184
H        -0.67250302579229    7.01377001346013    4.96061605347468

