47
CSD_code = VOJSAR | q = 0 | S = 0 | Stoichiometry = C14H24N2O6Pd | MND = 4
Pd        2.95541172642415    2.55525790305334   -0.02666741601340
O         3.00247030954975    4.42902812260101   -0.76986012503163
C         2.73865059800058    4.55335553306558   -2.02319426389677
O         2.84480019887050    5.59286037100995   -2.64009080032933
C         2.19017799668835    3.27645866709439   -2.69268117469722
C         0.85507983709747    2.81875501006288   -2.03072759417618
H         0.84569773862392    1.79820367052457   -1.62132668528137
H         0.48791211321701    3.53520628575738   -1.28336661231187
C         0.15535383608325    2.96359987787597   -3.39447015987581
H        -0.66627025296252    3.67755588412618   -3.40341832971252
H        -0.19268999305513    2.01883769572459   -3.80794533205978
C         1.45886371833794    3.47475415124439   -4.02535715425047
H         1.44639020724349    4.51682102922753   -4.33747433696312
H         1.86122699419336    2.85512408401051   -4.82384409246501
C         3.32287864303492    2.22424348795919   -2.72040306788468
O         3.50232652373151    1.54827433049208   -3.72338896785072
O         4.02361189179973    2.09181752762153   -1.65487797122686
N         1.99891692159681    2.91961233896760    1.79444988411583
C         1.42538474110255    4.23022409558164    2.10882925215700
H         0.96646830220934    4.20928352414585    3.10864058696154
H         0.65392339746480    4.44488753227710    1.36548633274394
C         2.45355993593568    5.36105411804397    2.07758392877552
H         3.16384013113446    5.18982498025099    1.25637712767468
H         1.92387872662620    6.30224784707383    1.88948812393482
O         3.12049740957469    5.42444470863437    3.32949251231874
H         3.72984869204016    6.16892080329578    3.31198766069042
C         2.99485609016082    2.50852610328733    2.79115423802850
H         2.48479241131603    2.27026384595362    3.73717021143820
H         3.67511786068390    3.34083058488294    2.97985769799900
C         3.76231258875689    1.28565383518955    2.25537852921142
H         4.76914016406882    1.57581062127152    1.92605585854295
H         3.85252754051667    0.51723868403987    3.04056826238481
N         3.03763233570643    0.74662942833639    1.09724539091563
C         3.63758930229758   -0.50003880713620    0.61236786667347
H         3.17500320888318   -1.35117676795570    1.12995520717409
H         4.70519631016024   -0.50060357115403    0.84021310485697
C         3.48309787136626   -0.65033412961030   -0.91002074810795
H         4.30596926132056   -0.12692291611053   -1.40614044023978
H         3.52133761375741   -1.71590536036757   -1.17522400748229
O         2.24993196032342   -0.08924639011213   -1.32486724622511
H         2.34227855348184    0.12002745285246   -2.26551241395359
C         1.64190549857831    0.52822123973740    1.48949634088878
H         1.61023756809588   -0.09981915398936    2.39422103713297
H         1.13752459598305   -0.00190225532356    0.68056921179281
C         0.96409442864961    1.88534871485625    1.74922315868341
H         0.25783611392308    2.12655580016234    0.94795459695590
H         0.40800837740725    1.85888946150520    2.70049281798617

