48
CSD_code = VOKNOY | q = 0 | S = 0 | Stoichiometry = C21H22N2NiO2 | MND = 4
Ni        8.42146124709045    2.92426730953637    5.91568202545761
O         7.63769363218204    2.11959651715032    4.49945168374475
C         5.51030915907857    3.22602577464812    4.46210291047603
C         6.47375690896804    2.29658359575031    3.98122848416816
C         6.14544805377936    1.49522159254562    2.84474666595459
C         4.94767681883533    1.60196331874391    2.22441399324818
C         3.96365344385463    2.51924952472521    2.67470179514408
C         4.23835957328452    3.34192839072220    3.79658802914253
C         3.22886563957689    4.23787625657778    4.19370704789046
C         2.02893105961586    4.31363994499022    3.53190280008079
C         1.76770744178385    3.49562019514384    2.43172575007754
C         2.72793886667489    2.61303531294427    2.01372634523442
C         5.81958454193822    4.02097518258653    5.59052970138252
N         6.93999379242507    3.99633136010574    6.26154629072658
C         7.17312549742314    4.81684852733834    7.37428771434150
C         8.46489906071262    4.60682053450405    7.91760850279110
C         8.86254052092464    5.35062696816561    9.03705868394735
C         7.99439348093219    6.26682239379651    9.58788900582937
C         6.72708072330762    6.46684006817477    9.05001255740170
C         6.31088160130292    5.74848583956051    7.94710264490559
O         9.23294867450461    3.71899799202771    7.34227986359365
N        10.09598097096774    1.79016312867801    5.60327712487873
C        11.25842812558600    2.59513649136651    5.21883426909097
C        10.85778974975760    3.58211834296629    4.13186926329172
C        10.37624039427335    0.87111069018937    6.70884552008338
C         9.09962417230767    0.13959102783570    7.09899927359348
H         6.89773482877542    0.79864349505269    2.50428642565526
H         4.71929895067391    0.98406378578065    1.36703838194320
H         3.37838440233284    4.89352835011752    5.03718611593804
H         1.27752252351344    5.01426072373257    3.86656854605937
H         0.81956623073035    3.56348461239414    1.91961944437067
H         2.54968868745001    1.97138312377782    1.16216504090913
H         5.05659180379716    4.71202807698083    5.92942847871602
H         9.84700614054229    5.19002976991438    9.44920379177937
H         8.30117056038667    6.83932593873992   10.45147826507259
H         6.06202502255449    7.18971701784259    9.49801077431390
H         5.32191831568229    5.92355451722940    7.55017927985662
H         9.81740128966133    1.23071249768763    4.79153596818285
H        11.58984770426666    3.14143391090508    6.10516918583288
H        12.07908648285293    1.94954285689240    4.87296221145992
H        11.66136818432988    4.28532428290811    3.93218977916510
H         9.97680495652215    4.14289060188825    4.47476356856578
H        10.60301102584757    3.06601273728835    3.20839626656460
H        10.72847549066719    1.46756085589958    7.55380578298635
H        11.16303543720491    0.15541057696203    6.42813039173262
H         9.24599157549027   -0.43646189997301    8.00830298835915
H         8.77457724862113   -0.53032981343822    6.30552878392452
H         8.30997998701205    0.88310770064071    7.27623258213134

