80
CSD_code = VOKNIS | q = 0 | S = 0 | Stoichiometry = C39H30F6O2P2Pt | MND = 4
Pt        2.56571023054217    7.15727205943707    2.37644279092132
P         2.47024878119217    4.90158639102678    2.38403728100460
P         4.79068725503865    7.44837713100940    2.02792006604480
F        -0.11712378075343   10.93635120837541    2.72216013813335
F        -1.50196816550474    9.29206496496063    2.74798946814118
F        -0.25162652481378    9.61849274716093    1.03047656141468
F         1.77834845554808    7.98832128516749    4.97255408269669
F        -0.31868152007956    8.46515390375861    5.07923697547089
F         1.13948078957748   10.04237786064238    4.97934890630670
O         0.59439190729105    7.43451921409410    2.62000694741687
O         2.05979118709824    9.11307933987623    2.50914619319671
C         0.83627664705746    8.72775654955974    2.94636533540150
C        -0.26553774751091    9.64946736897855    2.36939830468794
C         0.82825207760884    8.83278752172852    4.49826370650200
C         2.98854924308389    4.14399555470882    3.95019689497951
C         2.73066463504428    2.80716051331739    4.23989995163438
C         3.11999174910202    2.28099910540605    5.45841716643997
C         3.75003220748154    3.08568127966249    6.39531687864619
C         3.97933216746625    4.42478368669089    6.12230115222363
C         3.59723731256820    4.95464594214424    4.90277304991817
C         3.34989336143403    4.06098128430160    1.03354244576529
C         4.06107838390685    2.87559818656964    1.15085576647417
C         4.66191002862030    2.32318439178434    0.03223506463057
C         4.55647918813781    2.94613168489117   -1.19946417034806
C         3.86028486869887    4.13944279756582   -1.31766624542759
C         3.26507688367562    4.69747872401993   -0.20356216555060
C         0.75895389358112    4.31963319967033    2.23338395174599
C        -0.09364243329588    4.63145024071530    3.29055057567533
C        -1.43044120981446    4.29325714795955    3.22016746669197
C        -1.92222308624229    3.64228081201541    2.09907802233458
C        -1.07547042712507    3.32940942831322    1.04912894562621
C         0.26470991817636    3.67099315225052    1.10830007495402
C         5.88157059992044    6.04635185305406    1.62356088278901
C         6.19547453718647    5.13140933270320    2.62620923371496
C         6.99315214707755    4.03803958367232    2.34866848992311
C         7.47765519683746    3.84100013341773    1.06537769944224
C         7.15543330722536    4.73774933702112    0.06135151106585
C         6.35813742695110    5.83486267048653    0.33527844598711
C         5.01700057855853    8.59759879131916    0.63983976078393
C         6.24543670573055    9.20585840926536    0.39539450762856
C         6.37522746985364   10.08922239415238   -0.65990266046311
C         5.28494586008893   10.37164741245503   -1.46917336608069
C         4.06108126117056    9.77033444724234   -1.22504072571368
C         3.92540218290844    8.88290895228249   -0.17225721527781
C         5.64851874736104    8.31121660151941    3.38107460638142
C         6.96021474729202    8.05318814636456    3.76563400600033
C         7.53275628368690    8.79270932672940    4.78613513555867
C         6.80776655436965    9.78799152592846    5.42106591347304
C         5.50398432658391   10.05323720736745    5.03213192909928
C         4.92396567513424    9.31874647015889    4.01474410316690
H         2.21029311917222    2.19227619066927    3.51802187573287
H         2.92342383267060    1.24304880059320    5.68355076028853
H         4.04770704221729    2.67045493512658    7.34665687805710
H         4.44758145065256    5.05671621140962    6.86211230258250
H         3.74220273068897    6.00803229517270    4.68108010254990
H         4.15390678279448    2.39071337199748    2.11096161425177
H         5.21429483171037    1.39973926345161    0.12377346254312
H         5.02240413385106    2.50499209662209   -2.06787601903557
H         3.78584935473468    4.63088255367273   -2.27623766382914
H         2.72278517921738    5.63528428380567   -0.26748350473932
H         0.29782294939426    5.15187262500138    4.15364606897891
H        -2.09313477505651    4.54739918414081    4.03352448972230
H        -2.96945988768508    3.38490801458948    2.04114207166538
H        -1.46079168135782    2.82548644469770    0.17462535815379
H         0.92256639916467    3.43643853254525    0.28282793747747
H         5.81669524442817    5.28825033350772    3.62625939713812
H         7.23801637404603    3.33854150609342    3.13432904174562
H         8.10358608820779    2.98846516353579    0.84856816636213
H         7.52708380694186    4.58306480536471   -0.94062553777602
H         6.10765716770719    6.53268330793489   -0.45037046574316
H         7.08946406154301    8.98741222244173    1.03557062962633
H         7.32623932239387   10.56525480471482   -0.84913022383603
H         5.39004875700961   11.06894140643341   -2.28717720628800
H         3.21043343444956    9.99986630252760   -1.84892599227702
H         2.96598768156329    8.42520473582496    0.04624631349840
H         7.53127528616172    7.27874401700629    3.27297533478467
H         8.55121690873052    8.59106991308473    5.08518379472716
H         7.26134685889240   10.35870571560284    6.21790621851400
H         4.93772997769847   10.83087074057560    5.52193612214898
H         3.91007768365875    9.52259294863905    3.69513483230935

