40
CSD_code = VOKSOE | q = 0 | S = 0 | Stoichiometry = C21H8ClF2N4O3Re | MND = 6
Re        1.75916090763321   -1.84600053948054    3.80123707013806
Cl        0.55305480081131   -1.93785092957392    1.75170283467823
C         0.52893354863993   -3.14345509740893    4.58200171064372
O        -0.26809993178395   -3.86997743497010    4.96109180289255
C         2.91971138398796   -3.28714283701058    3.18258399419982
O         3.57163126390359   -4.10077658431661    2.71370761492558
C         2.74310012926826   -1.55973928975025    5.45227188247620
O         3.32340342747547   -1.35589334252413    6.42177356627744
N         0.46177937393788   -0.15738811131560    4.05501379836998
C        -0.65889938115218   -0.09716588954079    4.75825272603403
H        -0.81910996732055   -0.89149783549675    5.47591057759087
C        -1.60229144148504    0.91257540047879    4.60152009895871
H        -2.50193708605674    0.89722654652096    5.19536075112053
C        -1.37491354165632    1.90953669574471    3.67583751982097
H        -2.07701348480407    2.70888260423357    3.50118582449834
C        -0.18929340760449    1.87695760566784    2.93872400813903
C         0.70588487274167    0.81821018226934    3.15974973468281
C         0.12955875764696    2.88170560175120    1.94862549336877
N        -0.73304770201285    3.85593780928464    1.73184687252181
C        -0.42738333048991    4.77118353412521    0.80424944000828
C        -1.33103732023292    5.82148315452572    0.53722885638118
H        -2.25998992259424    5.87700019577615    1.08073636172623
C        -1.01185712873712    6.74847705677708   -0.41089444029042
F        -1.85384092942908    7.75203886283458   -0.68142376207707
C         0.20817235575528    6.67418373925908   -1.12671671214737
F         0.47058349956320    7.61041165928811   -2.04533300983968
C         1.10423118177163    5.67326402787065   -0.89144549398836
H         2.03181584655595    5.61570581179239   -1.43706189487116
C         0.80467074973698    4.69630907530031    0.08161316372310
N         1.67767401443674    3.70972709988965    0.31835048517303
C         1.36101273882051    2.80716296245999    1.22681513762926
C         2.28699479067868    1.72738756814715    1.48776042227777
C         3.50606059374373    1.61481331238890    0.81595555964807
H         3.76606969625588    2.35601467761362    0.07743031439972
C         4.33238429574267    0.55440394772748    1.12452747057063
H         5.28385247071271    0.42730685403228    0.63380946074841
C         3.92093755262357   -0.37337897674025    2.07536353600712
H         4.55194653034881   -1.21526461715101    2.32975697249634
N         2.76035994353341   -0.29590917417230    2.70870744654856
C         1.95042984903749    0.74313467369261    2.43067280453795

