86
CSD_code = VOKVUN | q = 1 | S = 0 | Stoichiometry = C35H36CuN9O3PS(1+) | MND = 4
C         1.83829765430902    8.75010528796381    3.22589395458636
C         3.26813386727352    9.45213130786411    5.15027288597267
H         2.55976584880828    9.14439869191954    5.89079937615910
C         4.50809649422156   10.03857019901537    5.24961741945602
H         5.03500276048800   10.28357063728186    6.14788459157806
C         4.95315481942625   10.20422234862405    3.92663780973524
C         6.22284678296931   10.72576010799427    3.44002017001523
C         6.90290968698778   11.72707305584813    4.13095838017384
H         6.47719743606122   12.13306007322695    5.03506193418124
C         8.11680981226091   12.19760242948398    3.66319329785061
H         8.63941384672836   12.96952605118963    4.20720699480236
C         8.67666802982803   11.66445555880822    2.51229159088363
H         9.63922672893142   12.01216957140383    2.16673990044994
C         8.01144165096793   10.65920026121123    1.82510128689178
H         8.47108337926914   10.21001766936703    0.95444145175134
C         6.78566193928180   10.19955132288426    2.27616369677192
H         6.26333278057720    9.40731444968068    1.75792705560144
C        -0.29993117058354    9.94871257331415    2.74129254892166
H        -0.90775893083791    9.23918127442168    3.26334814093978
C        -0.61010073803374   11.09057668467968    2.04005508499764
H        -1.57996871393800   11.52029437938719    1.90185870997846
C         0.61835210723717   11.59523563705096    1.58054225778949
C         0.90014277909532   12.81558830000442    0.83729994379332
C         2.06515403421000   13.53012972499995    1.11582735558499
H         2.72200010989068   13.16184014881800    1.89199981279551
C         2.33275973007321   14.71205790743718    0.44749151492409
H         3.20774366284116   15.29658951968431    0.70589594675974
C         1.45641349996330   15.18253116814740   -0.51900751919843
H         1.66181436191987   16.10921300585457   -1.03350634277309
C         0.30190882113397   14.47100317596436   -0.80441391861709
H        -0.38595907255310   14.84146742170645   -1.54845382151435
C         0.01847898332076   13.29922649762948   -0.12628804719595
H        -0.88664995561273   12.75308938261152   -0.34112963024797
C         2.13279466225894    6.48120044751761    2.21860561359783
H         1.77603297944961    5.96199535131194    3.08336216351947
C         2.58863411384277    6.03783499468994    1.00016580046988
H         2.64935467464669    5.02293956998680    0.66771038269249
C         2.91763277877952    7.19667788326246    0.27270358796376
C         3.40724796059768    7.31847000541880   -1.09328830310661
C         3.11256041009076    8.45873427644570   -1.84183057201323
H         2.51054931135148    9.23943398815076   -1.39271129806783
C         3.54089663349955    8.55933022994863   -3.15398967746713
H         3.27338803403291    9.42370885456528   -3.74754862808781
C         4.28120370575231    7.53801294699146   -3.72898618755248
H         4.60685416575962    7.61632864244249   -4.75506661137844
C         4.58606267743527    6.40857448535961   -2.98653491490763
H         5.15648218292937    5.60927639602662   -3.43358630024046
C         4.14797881426787    6.29427044804549   -1.68016402723869
H         4.38072864514616    5.41014731024866   -1.10775344910998
C         5.92536088893971   10.50543870278921   -1.36246098644595
H         6.62643194976672   10.04341254569071   -0.66342812005379
H         5.54638174857062    9.72260051921637   -2.02509105931439
C         3.75421137219579   12.18365546086934   -1.83185190654774
H         3.27701014403518   11.48223895111317   -2.51890357745288
H         2.98292170535339   12.86055511511541   -1.45189541073864
C         5.46172664534014   12.68245079879213    0.28651286749823
H         4.74540931407076   13.36334155160716    0.75349831049760
H         6.12610889821877   12.29669531076796    1.06688561268059
C         7.25638514879012   12.50162232265039   -1.37671943616652
H         7.88901841600544   13.11728680542530   -2.02378905778138
H         7.86491433875030   12.04604718766896   -0.59044514393178
C         5.76685634993780   12.09966482127642   -3.16494802214536
H         6.37991257847164   12.70536870409127   -3.83833341271120
H         5.28622064947867   11.30947267991944   -3.74046248044498
C         5.34626390309021   13.97692573794068   -1.79384811015392
H         4.57170255598148   14.58241123876122   -1.31458880079872
H         5.95935690092590   14.60787516673817   -2.44492959984630
C         6.97172568936616   14.53224344155336   -0.03034700752763
H         6.25728436360266   15.21254172538031    0.43078607312269
H         7.57485573021864   15.08911751536829   -0.74615330738023
H         7.62299806205273   14.12963924648094    0.74508323015822
N         3.01182863537161    9.29785911197257    3.83949779893798
N         4.02530202313125    9.74955383038563    3.08964138749241
N         1.03516697696699    9.80255185732321    2.67919708333997
N         1.60175645747281   10.79420260694749    1.97985628210310
N         2.20223389007619    7.82458605961165    2.19629470975753
N         2.67520215557482    8.26673339007158    1.02279851550466
N         6.26271689385291   13.43828122283726   -0.70103857335319
N         4.75432248354053   12.94435541137883   -2.55575834523808
N         6.61859324005510   11.50553073372456   -2.15021161986379
O         0.39837167088704    8.92824573057427    5.40007844048850
O         1.80629035259294    6.94288050244502    5.11983845103309
O        -0.21596137666103    7.21181592809586    3.76500193826251
P         4.49485470154806   11.23093770064801   -0.40556539881020
S         0.80004595370399    7.81665920541757    4.58180916047199
Cu        3.37917381236439   10.16279950345741    1.19287810248810

