26
CSD_code = VOKYAX | q = 1 | S = 0 | Stoichiometry = C10H7NO7Tc(1+) | MND = 6
Tc        5.93353699189629    8.36877393262468    1.08587310760456
C         6.50084242193991    9.70020714701265   -0.25719839922889
C         6.94830066340649    9.32014041765345    2.49464298876437
C         4.32366800671784    9.44324033588557    1.49938874382658
C         4.92198065301660    7.37135698928447   -0.29287492599936
C         7.54851851064925    7.27814016600540    0.67864376552662
C         5.44159457281942    6.94660276897937    2.46392368701359
C         5.52921370824135    4.96105092589784    3.96688513569136
H         4.78902330868244    4.18072004618089    3.77008332134902
H         5.53801153076251    5.17684588819865    5.03886700138969
C         6.93968728367726    4.48958801077281    3.50501885968513
C         8.57801545772144    2.82851157696247    3.81204081825826
H         9.34679702188872    3.58535771033712    3.99466480943757
H         8.58640642154460    2.57376098713806    2.74792329061265
C         8.77443827292513    1.60554613357525    4.68290501572276
H         9.73423329518525    1.15326961618291    4.45336873606141
H         7.98906357540459    0.87834612069446    4.49785410472760
H         8.75675711615961    1.88038676633491    5.73361962870638
N         5.24551604069430    6.10452471739418    3.23769974719491
O         6.82482825867907   10.46377120222232   -1.02399080700179
O         7.53291706807562    9.84887891510625    3.30321042325259
O         3.40701945808098   10.06228383580603    1.72681080885071
O         4.35008974947913    6.79421970485209   -1.07732984658220
O         8.47025690522996    6.68668529869006    0.41909047418101
O         7.56148855788695    5.10083473804429    2.67612602765665
O         7.28899514923492    3.40365604816277    4.12945348330512

