105
CSD_code = VOLDOS | q = 0 | S = 0 | Stoichiometry = C54H44HfN2O4 | MND = 6
Hf       11.77505884098158    6.03205052305870    5.47824504361726
O        12.78800693213186    5.65601487157749    3.88595678494677
O        10.68634515533722    4.00318970876272    4.67875985600490
N        15.46291560933051    5.17108451665717    3.48218637371698
C        14.48761111846172    4.48923551683299    2.72980328064653
C        13.11856573342465    4.77159609457457    2.98225380046008
C        10.03176702772162    4.38026903648716    3.50174713087684
C        12.16617836563259    4.10072713631179    2.18030083736900
C        13.22658706791228    7.42346848362010    6.39018031324602
H        14.26496764524409    7.12176018641822    6.22093860580063
H        13.08201561135360    7.50183799361108    7.47388795668951
H        13.11847859718978    8.43112541966594    5.97386291497877
C        10.73300346574579    4.42460197788810    2.29309650013997
C        14.87003715729810    3.55642859373260    1.78160262704372
H        15.92226267836007    3.37684928745993    1.61605983143705
C        10.20601878898388    2.78458903592664    5.25981591052502
H         9.22289282345302    2.54552026417265    4.84030930914032
H        10.09613416149315    2.94905397283448    6.33672377425800
C        16.45321434928302    4.57742143364363    4.23038770909810
C        15.55857669123402    6.53831358632106    3.63630977773727
C         8.67289898205552    4.67232334285483    3.53894124606800
H         8.14624283732887    4.62380834995349    4.47924590740867
C        12.57781091738756    3.16989644487244    1.23310424620493
H        11.82605646853431    2.66122761228777    0.64591428060397
C        16.63643223236403    6.83678837040543    4.50216857353180
C         7.99935537906310    5.02625019771680    2.38580589568988
H         6.94664819612780    5.25747606240384    2.43474220837797
C         8.68248326392384    5.07952836254660    1.18172983228141
H         8.16490960858091    5.35459860429241    0.27520214178402
C        11.16878116390595    1.61966381871709    5.01234781851563
H        11.50228920436358    1.65100971544627    3.97205622710400
H        10.61676551774806    0.68985399569534    5.16241225920943
C        10.03013887186941    4.78110545087773    1.14123277834655
H        10.56658602416015    4.82550893904938    0.20484181941806
C        13.91509698748719    2.87885689706421    1.04194945559108
H        14.21547761832622    2.14775720213809    0.30768182584735
C        16.73108151737739    3.23000979173680    4.42580383322456
H        16.14659953433409    2.46308398102088    3.93896466119178
C        17.21074144341750    5.57969203995744    4.88720564781417
C        14.81040308936463    7.54925102686848    3.04842289599480
H        14.00712483560686    7.32619024624824    2.36441623091398
C        16.94031229606671    8.15781045172619    4.80660750811512
H        17.76009342112127    8.39179346160404    5.46955743712032
C        18.25723333435341    5.22035173352932    5.72656563900708
H        18.83845630256975    5.97942288371883    6.22848602510167
C        17.77501724164775    2.89981362402486    5.26895422862024
H        18.01029002452585    1.85856571058979    5.43518004312862
C        16.17582291698005    9.15687518155960    4.24049510536690
H        16.39224830388829   10.19070535589408    4.46611391945894
C        15.13023459130849    8.85352629152240    3.36984330353858
H        14.55884258802985    9.65901907337379    2.93279965670525
C        18.53204885179481    3.87939896683221    5.90891106633683
H        19.34164936086971    3.57965474201546    6.55769255920114
O        10.76225660926473    5.65448549174700    7.07064734380768
O        12.86561331814593    4.00239849787575    6.27788640687682
N         8.08752251132458    5.17041506556903    7.47749455957340
C         9.06343719348322    4.48864383445830    8.22913730093805
C        10.43227633997044    4.77062679897251    7.97511003041243
C        13.51978474377439    4.37968554749535    7.45514375827610
C        11.38520997767844    4.10017301052583    8.77674192364605
C        12.81830917920552    4.42410204768034    8.66360949852920
C         8.68174560774399    3.55620318333857    9.17797159362207
H         7.62963539017497    3.37681559026932    9.34446595378332
C        13.34678448730490    2.78368480326334    5.69758399891229
H        14.32872928351830    2.54409803986560    6.11961169473286
H        13.45947558867448    2.94825029910414    4.62097298305373
C         7.09751019120143    4.57685637853614    6.72885139017638
C         7.99299725109277    6.53754444630658    7.32218119622909
C        14.87882290988889    4.67116092282263    7.41849488909081
H        15.40573897976647    4.62276932112235    6.47833726940793
C        10.97435561605359    3.16940589638089    9.72435055804202
H        11.72667298193968    2.66066075952795   10.31074568735707
C         6.91580356954460    6.83619125462717    6.45556396595809
C        15.55227126153795    5.02434365671828    8.57191082283738
H        16.60530673475264    5.25418435625229    8.52345316384278
C        14.86876566703919    5.07804894135471    9.77577601070626
H        15.38651403290040    5.35106652928351   10.68280129175843
C        12.38351049320748    1.61859963814549    5.94227124914483
H        12.05007642593356    1.64738689223691    6.98264819993404
H        12.93556286581331    0.68917356790111    5.78987138494095
C        13.52096075153854    4.78039038285534    9.81570705230064
H        12.98434888382287    4.82403214921087   10.75202869356775
C         9.63724691582148    2.87838716263313    9.91668759932201
H         9.33750541277677    2.14727583387340   10.65119271613366
C         6.81881431660994    3.22948840017508    6.53441009732815
H         7.40270763854102    2.46258651145964    7.02199894960941
C         6.34154743733334    5.57914193419838    6.07025019130015
C         8.74146723500731    7.54825196594047    7.91006111921609
H         9.54358922523275    7.32491286160612    8.59533099933159
C         6.61299531029908    8.15727676702677    6.15029171833148
H         5.79453755633521    8.39147050240655    5.48579791317935
C         5.29594119906411    5.21981382053287    5.22977774708814
H         4.71502925522768    5.97890240127180    4.72750206497822
C         5.77544238450905    2.89932855084868    5.69054311079564
H         5.53975658170748    1.85810709139346    5.52472828722313
C         7.37802507222146    9.15608895181205    6.71611781862047
H         7.16291127890959   10.18990776239703    6.48923705172533
C         8.42293251666208    8.85254981621939    7.58752321897014
H         8.99434973904204    9.65790822572282    8.02476254144770
C         5.02017677915743    3.87890936470829    5.04850678638340
H         4.21072524660715    3.57920753764180    4.39950756569511
C        10.32248129115929    7.42063085094363    4.56346628143001
H         9.28421258563040    7.12430849203827    4.74233699686504
H        10.45972375213058    7.48903253823984    3.47816573976089
H        10.43677167661944    8.43165978545293    4.96960899934640

