57
CSD_code = VOLJAJ | q = 0 | S = 0 | Stoichiometry = C30H2F20O4Pd | MND = 4
Pd        9.82953191932633   -5.32326584087088   14.52453661916995
O         8.49149581167832   -3.92099584828975   14.96698292434837
O         9.44604089203678   -5.15161947483072   12.58091602722072
C         6.01890689657455   -2.80070055139255   15.84562868731062
C         5.08382579089037   -1.96367026911610   16.44827658107416
C         4.87385471058470   -0.68335374641155   15.94199967210562
C         5.59669386061680   -0.25350885081996   14.83200364254627
C         6.51877709608966   -1.10756768009549   14.23480105054789
C         6.74393587963273   -2.39152575997143   14.72508769638048
C         7.75524420393054   -3.32698485533407   14.13237793492627
C         7.76881912159520   -3.46102123207452   12.74023609471143
H         7.09482414996301   -2.85811379127749   12.15779331810482
C         8.62330896805679   -4.34298349850598   12.07105395660624
C         8.59222674438976   -4.32225184794873   10.57135649662171
C         9.79833711949269   -4.29818636189916    9.86977128545923
C         9.82567852559822   -4.29686034249707    8.47784919454907
C         8.63114698484709   -4.34096155203218    7.76309031369767
C         7.41831538256792   -4.37755132981820    8.44670758325852
C         7.40931932300927   -4.36451809396404    9.83811782675133
F         6.18949966090294   -4.02530687293725   16.33061884217594
F         4.39169034024892   -2.38016327471844   17.50637809523444
F         3.98837235135446    0.12557579462537   16.51517786627107
F         5.40599432274079    0.97225976234968   14.34641420450550
F         7.21166215902324   -0.66056328531124   13.18512170708658
F        10.94621733629965   -4.23492086202946   10.53517766642558
F        10.98649887741011   -4.25519367868107    7.82756672834979
F         8.64744832456807   -4.34804180558219    6.43385227951615
F         6.27255827745244   -4.42639613594975    7.76883728283142
F         6.23405830642684   -4.41767116476721   10.46867383430518
O        11.16777047963443   -6.72532449129918   14.08209705713373
O        10.21324657179708   -5.49463772239585   16.46813246163367
C        13.64030284798172   -7.84570410563929   13.20344116190348
C        14.57534407305874   -8.68277227842306   12.60078758786817
C        14.78527227888317   -9.96309275520963   13.10707086695371
C        14.06243267568141  -10.39289970948517   14.21708117753501
C        13.14038931612475   -9.53880237853235   14.81428756024554
C        12.91527206301487   -8.25484188232477   14.32399363999652
C        11.90400395004689   -7.31934701873638   14.91669998675209
C        11.89044244897190   -7.18527819436762   16.30883864969622
H        12.56442400297175   -7.78819450740995   16.89128729511079
C        11.03598569701897   -6.30327293104489   16.97800722868301
C        11.06707662825132   -6.32398510941333   18.47770751831745
C         9.86097574596112   -6.34801150833250   19.17931530149827
C         9.83366375601491   -6.34930722471252   20.57123966580114
C        11.02821109079655   -6.30521699264572   21.28597277225648
C        12.24103201837608   -6.26866199941341   20.60233365601193
C        12.25000072417516   -6.28172470444269   19.21092341817385
F        13.46974584570906   -6.62109698074440   12.71844224168182
F        15.26748522427124   -8.26631278676024   11.54267712489250
F        15.67071979886594  -10.77205829601638   12.53389070556314
F        14.25309723938044  -11.61866835058704   14.70268179158459
F        12.44749852514885   -9.98577699686413   15.86397434449541
F         8.71308307498096   -6.41126881551097   18.51393096062849
F         8.67285746666521   -6.39093528274523   21.22155041625258
F        11.01193329615292   -6.29811563546355   22.61521210408907
F        13.38680250679514   -6.21982511028583   21.28018047276392
F        13.42524731596196   -6.22860378104251   18.58033742038362

