60
CSD_code = VOLJUB | q = 1 | S = 0 | Stoichiometry = C27H31SiZr(1+) | MND = 14
Zr        0.16298431314592   13.13471827028827   15.28978183563981
Si        2.87689286415557   11.39898875392255   15.37314243109070
C         1.16048484852345   11.35513916849869   14.57787661890778
C         0.68881894656483   10.39130576013039   13.78065267182669
C        -0.71144387705585   10.45915982979116   13.20961524005283
C         1.42933273369161    9.15891355072526   13.34360578054333
C         2.87996341515826   13.15476154799113   16.24312880245900
H         2.98356721632880   13.05379990292305   17.32250209056998
H         3.73660633820014   13.73356939798022   15.90429624179280
H         1.97429829125886   13.76760804324714   16.03794414312911
C         3.11740404138583   10.12311877589822   16.78047672883512
C         4.40522216239572   11.39064894656595   14.22510090622072
C        -1.67148224553982   13.85204148290372   16.78309355633796
C        -0.48673107342668   13.89340388378156   17.55253812482647
C         0.05181696737793   12.58538257534972   17.67477265874795
C        -0.82921639503386   11.68844028249021   16.99508211360730
C        -0.86801200810726   10.28055729401305   16.88196022734725
C        -1.92672531342659    9.69668694328099   16.23752697326435
C        -2.96166103629697   10.46714442613513   15.66992719497226
C        -2.95700954534219   11.83692833712407   15.73716500120760
C        -1.89857428347950   12.48619201451623   16.41546072155842
C        -2.53110459563599   15.02592719131925   16.39898723130983
C        -1.75054174905340   16.01203428532384   15.49530878675762
C        -0.84819356022565   15.26668290534813   14.54950196044231
C        -1.24292156840172   14.27251359995284   13.62547790121713
C        -0.09810572328640   13.75673327782385   12.95518161251638
C         1.03813957344195   14.48392665514078   13.43201987632313
C         2.39999246874446   14.46671319043150   13.06873685526332
C         3.26080230502216   15.33986596773237   13.68587989722839
C         2.81490402862423   16.23346621073665   14.67970691572840
C         1.49948138220129   16.27645930847074   15.07097513400323
C         0.57206814322741   15.41097930080529   14.44716324047550
H        -1.28501714414618   11.30227853753248   13.62779077686342
H        -0.66438423379222   10.55603563658683   12.12365948621019
H        -1.24381694050523    9.53283730660509   13.42214112281977
H         2.44616395270669    9.15046799583733   13.71999958451589
H         0.91378541158683    8.27128434033677   13.70759529538039
H         1.45350457887211    9.09899093947502   12.25674709168398
H         4.07529578213848   10.26427439177484   17.27180342470387
H         2.34327148335121   10.19759412269266   17.53939384411076
H         3.09870740959549    9.10896261382706   16.39658093568743
H         4.56987261381328   10.41166012777012   13.78881017790502
H         4.30325758958003   12.09812370060578   13.40785563769155
H         5.30309009205517   11.65172261806608   14.77725826119858
H        -0.12017898885542   14.76757139970450   18.08478012688729
H         0.83888006611029   12.28965114661467   18.35722675856947
H        -0.10153793998661    9.67635086943232   17.34677221484342
H        -1.99074284495823    8.62151198685817   16.17835649747356
H        -3.78328525630529    9.95933149470343   15.18907782873714
H        -3.78699093478981   12.40627811704057   15.33741953729354
H        -2.87730537528294   15.55417081208160   17.29141024970014
H        -3.41603351240461   14.66410215045201   15.87015517763430
H        -1.14920119880110   16.68280867239196   16.11480306489927
H        -2.46118097460857   16.63114089987735   14.94074116018582
H        -2.27125083961376   14.03369400021522   13.36842325995729
H        -0.10931936272474   13.14040183985080   12.06487868553885
H         2.73732654581215   13.81122559646770   12.27731943910010
H         4.29977552636590   15.36582186371223   13.39642187793473
H         3.52631837228912   16.91100180014904   15.12575793965264
H         1.17073905736177   17.00329393869706   15.80333106861863

