83
CSD_code = VOLNER | q = 0 | S = 0 | Stoichiometry = C46H26Br2F6N2Ni | MND = 4
Br        8.49391581272495    2.55646641964929    1.02914513826201
Ni        7.77727552420010    3.92912120652727   -0.54265762394244
F        13.06606294100860    6.06278763081829   -3.51327418639784
F        12.21250126335164    4.09417023362794   -3.43150944194090
F        12.66640822627939    5.14836040590679   -1.61019652927948
N         6.76202747908325    4.80850216830402   -2.02101236383869
C         5.70907630464081    5.71882808836865   -1.92924507085901
C         4.61287425395916    5.33799575798466   -1.18337779432354
H         4.63183470699061    4.38864993430336   -0.66828431917210
C         3.46712831154908    6.13037460446478   -1.12435835648485
H         2.62061956661749    5.78565175291574   -0.55243102345674
C         3.42267318598870    7.30973788640489   -1.81230457032365
H         2.52924397218665    7.91564516088961   -1.81261482704316
C         4.55050488847762    7.77520713617680   -2.52027734938066
C         4.50262184666667    9.00777342367688   -3.20354277512063
H         3.58290798981165    9.57299944267155   -3.17831116726119
C         5.59416366315952    9.48066338627852   -3.87480660132288
H         5.55097875393189   10.41758329329774   -4.40902208194446
C         6.79512013617654    8.76719384430599   -3.83328867945454
H         7.67612810113998    9.17990110183052   -4.30313078692909
C         6.89765213534481    7.57039087343031   -3.15973559282715
C         5.74803215652266    7.00645164431767   -2.54379482263876
C         8.24332227249495    6.97510908956165   -3.05654015420779
C         8.83659649429539    6.77260668292748   -1.80954028674873
H         8.30851865797885    7.06752899164876   -0.91392715569079
C        10.10783114712209    6.23336853786471   -1.71566043896583
H        10.56756530783443    6.09352921496832   -0.74771690957315
C        10.79729533134309    5.90257441667428   -2.87666243719426
C        10.23113478028160    6.13439617785169   -4.12434067163130
H        10.78586259681898    5.89075845667182   -5.01822571436411
C         8.96421360188830    6.67636665144584   -4.21001217087401
H         8.52073001260241    6.85710104354239   -5.17823777422099
C        12.17413581557459    5.31167294174148   -2.84161727177472
C         7.19540048843390    4.37479620957523   -3.15672397068456
C         6.79254563871167    4.58193877148996   -4.53991179116904
C         7.77722642225889    3.92916124950068   -5.32198449675352
C         7.77721179178187    3.92911843886643   -6.71916217641124
C         6.69786085522419    4.59569628187381   -7.34233147269568
H         6.64473674247590    4.62519192462249   -8.42073679061920
C         5.72096868742184    5.19371325200751   -6.58376411091418
H         4.89649367143338    5.68573273329541   -7.07801260362377
C         5.74722875189990    5.20598225941991   -5.17722823855388
H         4.94898570513395    5.68723367243729   -4.63509195437016
F         2.48829618974348    1.79534001549104   -3.51302494076995
F         3.34171094201464    3.76404896442501   -3.43136155414160
F         2.88798959091304    2.70985749151980   -1.60997198440033
N         8.79248387263505    3.04991653159327   -2.02105339733041
C         9.84541978889313    2.13959383499705   -1.92929387800533
C        10.94157239240502    2.52036511810136   -1.18332417549084
H        10.92258738684291    3.46967063489391   -0.66815835006085
C        12.08725930450536    1.72791821325280   -1.12419659793056
H        12.93373584374461    2.07259172140881   -0.55219782559944
C        12.13171333225687    0.54857774479535   -1.81218019217070
H        13.02512818306611   -0.05734773218110   -1.81247520702860
C        11.00391697858734    0.08318216043796   -2.52026228892109
C        11.05179567421890   -1.14935502931384   -3.20357315405945
H        11.97148916656975   -1.71461022314654   -3.17831219722316
C         9.96026987012804   -1.62218526641840   -3.87490349684503
H        10.00345963535094   -2.55907114320926   -4.40917864126495
C         8.75932214450138   -0.90870060913466   -3.83338742748912
H         7.87832808886241   -1.32135098556621   -4.30331026062102
C         8.65678883979724    0.28807508428431   -3.15979137333254
C         9.80641932122041    0.85197503334532   -2.54383135368661
C         7.31110382572489    0.88332422540476   -3.05655509536477
C         6.71786372547860    1.08576398214117   -1.80952860406556
H         7.24596794293808    0.79078048349392   -0.91395238160546
C         5.44661657487724    1.62495992538016   -1.71557863141874
H         4.98689438039526    1.76469584131662   -0.74761345389297
C         4.75709051162580    1.95575551096644   -2.87654326622180
C         5.32321219039219    1.72398963013826   -4.12424866384488
H         4.76844633930787    1.96765306509521   -5.01810348713476
C         6.59015230179640    1.18207210979984   -4.20998775513239
H         7.03361428890019    1.00142143971135   -5.17823910792415
C         3.38021421090639    2.54654994487154   -2.84143245489607
C         8.35907594824541    3.48359605754907   -3.15674500679149
C         8.76192661272296    3.27642454027804   -4.53991470125253
C         8.85654238341675    3.26249128546711   -7.34232286761633
H         8.90967759914496    3.23298703110418   -8.42072731044292
C         9.83343936923889    2.66449394274487   -6.58374714715396
H        10.65790659377213    2.17244436137869   -7.07797917791607
C         9.80722957880079    2.65234195877165   -5.17721317758877
H        10.60544575609789    2.17105579586749   -4.63506873136310
Br        7.05987732713514    5.30207491480605    1.02844873474507

