39
CSD_code = VOLQIW | q = 0 | S = 0 | Stoichiometry = C16H13BrCl2CuN3O3 | MND = 5
Br       -0.53332675247324    8.20941235953736    6.66393343466336
Cu        1.40731407200271    1.06638578052830    8.72947559512269
Cl        1.82000343952774   -0.28962753131022   10.25951369697789
Cl        2.94110539523107    3.06505042535773    8.71823405309558
O         0.68505545293423    0.41015247505648    4.47409443117722
O         2.19046660230526    0.02590812445568    7.53763649715537
O         2.31726197174015    3.08227871964036    5.74262891073237
N        -0.18881107153027    2.48332187403750    4.64173455589494
N         0.85768506442509    2.02863807457107    7.26338967191040
N         0.16129567462043    2.08024115466015    9.64640278666602
C         0.69944928025641    1.50122968484731    4.97941683490080
C         1.69136526162642    1.90020909932304    6.09736055034643
C         0.04922092354059    3.01769255772209    7.49888551588503
C        -0.25460845317619    5.39826179520843    6.95991020711719
C        -0.41526633181792    6.41863517528552    6.04821375578264
C        -0.48757602331953    6.15028441562149    4.68738766492804
C        -0.38858551391634    4.84781535068655    4.25086562429310
C        -1.03007442634439    2.17991387915992    3.49167714410580
C         2.66855103328833    0.75487811355695    6.47359425703019
C        -0.45416305345476    2.99759138599902    8.86019310699046
C        -0.13285325428723    1.99452228488316   10.93488070357251
C        -1.08761791613780    2.80852496826326   11.51949711039564
C        -1.77747390902017    3.71477069716446   10.72391696774302
C        -1.45968720763330    3.80966953850107    9.38158783939027
C        -0.17270046382706    4.07230502619947    6.52629008903153
C        -0.21859143779715    3.78651477651000    5.14437827465656
H        -0.13193256957647    5.62400332786749    8.00721420701049
H        -0.60044722085301    6.95681020643119    3.97994740772984
H        -0.40870794400197    4.65079640200563    3.19165420434744
H        -0.51338251511223    2.38165476684894    2.55190315149614
H        -1.94696994001104    2.76190117910627    3.54769112209069
H        -1.26271155066863    1.11582321351149    3.52635057086027
H         2.79102555168343    0.05220954668735    5.63976166557412
H         3.63897060503890    1.21983223929686    6.70278492159825
H         2.81625342961561    3.38291931810577    6.53775182556742
H         0.41226838256247    1.23785856855213   11.48722008700751
H        -1.29489327039681    2.71531443567903   12.57266090817444
H        -2.55039524519099    4.33948483739181   11.14474906272366
H        -1.98341606985215    4.49321175304518    8.73281158625784

