91
CSD_code = VOLRIY | q = 0 | S = 0 | Stoichiometry = C35H50N3NbO2 | MND = 5
Nb       11.08600504515421    5.02391650377018    9.93425631457829
O         8.69301301936809    5.65212305293371   11.99768911096712
O        11.66757090054998    2.64046728072257   11.90913635129327
N        11.01794332696977    5.89870649154550   11.70841771775986
N        10.92941947316203    6.35711148852788    8.35539095623881
N        10.82561984914734    3.59109195807946    8.41092601024773
C         9.76968893679066    5.56449986732807   11.47134921567643
C        11.44730262890988    3.39642905510491   11.05399778775038
C        11.43457020856064    6.44472710887318   13.00521265065961
C        12.94231218895628    6.70165966998983   12.94446420874887
H        13.46903208758373    5.77020349786496   12.73557291795511
H        13.29371989679748    7.09776993265858   13.89463896402008
H        13.16366513265340    7.42363594060954   12.15950448794068
C        11.11211637721395    5.42665097155250   14.10726865130282
H        11.62299798989800    4.48534579182165   13.90966935787362
H        10.04089676121596    5.23928851800265   14.13785526052034
H        11.43091557068009    5.80693694140242   15.07487929400580
C        10.68757625374043    7.75931886147461   13.26618766576925
H        10.88475115224052    8.46826051323493   12.46290105314789
H        11.01323649785498    8.19231219497728   14.20907898382688
H         9.61705667378269    7.57452919206854   13.31726484899901
C        11.27605061465801    7.60602969843248    8.91976253738554
C        10.28341436605914    8.49984517375653    9.35910081366876
C        10.67975067377203    9.66128803161911   10.00846059050817
H         9.93191292901224   10.36022411296772   10.35096993482410
C        12.01594300260260    9.94333020560442   10.22372554972023
H        12.30111766970779   10.84339159403803   10.74832310738611
C        12.98697884528985    9.08323982731354    9.74565411688363
H        14.02927939991195    9.32682096649237    9.89010250614395
C        12.63970005900248    7.92083763319434    9.07228490020247
C         8.81673971343699    8.25101063559297    9.07786656506228
H         8.69757819883710    7.22962861524611    8.69107227597017
C         7.94239648046555    8.38532651913835   10.32582031897547
H         8.24051633481124    7.67679947122914   11.09212077069155
H         6.90594823117736    8.18128908289875   10.06503064237006
H         7.99420095004034    9.38963343532248   10.73976245720404
C         8.32616821972043    9.23787817113543    8.01098694022140
H         8.92377788512188    9.17466474339183    7.10539321950694
H         8.38363222842633   10.25815019736146    8.38508521237877
H         7.29063661201752    9.02425616993598    7.75489000004221
C        13.71949710573282    7.03265909885196    8.48580465276132
H        13.24844108760451    6.22117048014618    7.91369329735142
C        14.57368047245011    6.39457417711293    9.58480357080158
H        13.95242819198266    5.76986906831499   10.23368949038328
H        15.05821778735146    7.15670673908159   10.19176029295519
H        15.34627233759545    5.77030635600476    9.13982608758489
C        14.59768243450673    7.82755346220694    7.51503087791504
H        13.98873659313304    8.30745291784428    6.75156935120260
H        15.30509308312311    7.16298178791942    7.02321153022974
H        15.16090651694709    8.59800771955753    8.03548467333492
C        10.86397672217102    7.39944778654166    6.11443982026124
H        11.11458099227723    8.31731427836697    6.64291586430798
H         9.92424175698483    7.53775274664768    5.58079395405642
H        11.63811477718355    7.19998415779582    5.37331070622356
C        10.75310304520034    6.22899108996798    7.06039551429158
C        10.48736295391930    4.97898142195842    6.48074958591632
H        10.28969818108214    4.98327245679252    5.41874807796572
C        10.51229566894293    3.74880590427269    7.11716083384930
C        10.24716631351213    2.53229406672231    6.26497992240340
H         9.49912454672522    1.89332854249543    6.72824694701287
H        11.15676021025430    1.94183767592969    6.16108180618281
H         9.90404570979977    2.82141053857840    5.27550696991497
C        10.92510419274406    2.23520108376390    8.85137601692122
C         9.79899939823389    1.57233813495871    9.36838248429237
C         9.94240913104855    0.26452520999914    9.80934880316307
H         9.09041173680766   -0.25508472516912   10.22001497068936
C        11.16032651653045   -0.38447560207479    9.73989635424178
H        11.25210494596392   -1.40180398478984   10.08999278685402
C        12.26242506697865    0.27358694629746    9.23076725680000
H        13.21271552544909   -0.23674237549102    9.19130728055161
C        12.16416547500546    1.58007132469340    8.77257535092690
C         8.46024534814200    2.26768608662676    9.49871209589123
H         8.54506738124901    3.28292702783781    9.08749142576617
C         8.07592912582119    2.39296846069760   10.97612848054484
H         8.85952574966109    2.90927847313360   11.52755141021946
H         7.92322682546466    1.41295248644069   11.42164796854870
H         7.15732647457963    2.96600578389472   11.07381803547415
C         7.35791447890787    1.52576752606333    8.73685159028559
H         7.59701253684956    1.43486516017887    7.67921570103940
H         6.41981188476965    2.06844470929794    8.82727707559989
H         7.21273158709212    0.52608622858640    9.13881913747196
C        13.39331180024704    2.28886632909446    8.24226857458593
H        13.09093033277965    3.26794704645361    7.84777246385552
C        14.39054835703002    2.52480984586525    9.38061861371223
H        15.27026189531144    3.04637241858759    9.00887084756813
H        14.70818561877413    1.57923966109746    9.81310054932007
H        13.92736448168676    3.12463132942477   10.16504929490032
C        14.05923464296849    1.50320927791644    7.10958857632008
H        13.34662787265081    1.27822052200447    6.31889270914555
H        14.46891007254556    0.56482912963310    7.47377420277820
H        14.87269267087894    2.08474489461633    6.68071184723456

