97
CSD_code = VOLSAR | q = 0 | S = 0 | Stoichiometry = C36H56N3NbO | MND = 5
Nb        3.28279103543016    2.33403869185690    4.17970635126711
O         2.24868564447470    2.32777684190203    2.59630877733521
N         2.85483644512744    3.93915146878973    4.82338735393634
N         3.88096207798830    0.23035957373043    3.70352824508376
N         5.46781932160950    2.37704637488305    4.64070446534422
C         1.21186828045155    3.02776829201469    2.01472412851454
H         1.29941808041612    4.09628999764076    2.31038496025105
C        -0.13341629134366    2.49252055117833    2.52519526592566
H        -0.14438397022002    2.53800786492568    3.61286255159807
H        -0.25091898166374    1.45603630696132    2.21487226991576
H        -0.95440765465854    3.08421080426855    2.12702665243582
C         1.25391567413093    2.94513279094275    0.48226563292348
H         2.19914336684315    3.33251442144933    0.10810957570743
H         0.44193002887168    3.52959522136205    0.05667689969383
H         1.14538820538994    1.90828873619041    0.17230288217981
C         2.31484293879898    5.18095810602476    5.23918265531312
C         0.77679385118169    5.06251695891304    5.30189126428076
H         0.50741736179634    4.24772543166422    5.97040852403891
H         0.38007576506552    4.85006718453502    4.31314395926675
H         0.34169121485796    5.98793693694080    5.67172282738859
C         2.69812967400140    6.28220321211706    4.23068953606063
H         3.77953099312549    6.38558567741563    4.20551827301024
H         2.25369890819264    7.23078271710828    4.52270689357217
H         2.34322671099678    6.01578534589312    3.23781337297970
C         2.81949053459542    5.60660806810956    6.63066571014910
H         2.46361830329738    4.90795207680164    7.38210015621178
H         2.44795085958754    6.59990351892446    6.87195757448099
H         3.90472988523489    5.62236602030045    6.63684812764853
C         2.74454799355850   -0.35675168012498    3.13199454181520
C         1.61104286606157   -0.53754698425470    3.94016859197998
C         0.43740531221614   -0.97998013208606    3.35412359265379
H        -0.45226154514130   -1.11727238057016    3.94886706014076
C         0.39018644721585   -1.24640265526487    1.99521445632559
H        -0.53579193503696   -1.57368358380008    1.54386722690707
C         1.52466987244220   -1.11059050803664    1.21744928680505
H         1.47217059071133   -1.33926973243686    0.16329250705188
C         2.72586483883952   -0.68932660773889    1.77034285610247
C         1.77004542258033   -0.24140225222362    5.41578585133896
H         2.71617084700434   -0.70397547243538    5.74281177784945
C         1.87073073963989    1.26992284526129    5.65403928732867
H         2.16689052484602    1.43006320478769    6.70113151472876
H         0.86403513563045    1.69253941619300    5.54514372996272
C         0.65627209151204   -0.84486427861386    6.27719923626388
H         0.55649924529428   -1.91306653568905    6.09123773606733
H        -0.29735508848961   -0.36088705186940    6.07680098133368
H         0.89083835662408   -0.70037212671846    7.33052627892152
C         3.97811231251256   -0.56208489725365    0.92813710502918
H         4.84406150159698   -0.52928881790215    1.59715960744644
C         3.96985179751499    0.75067387677929    0.14206836620199
H         3.82710261437179    1.58853615490287    0.82535666784576
H         3.16342100341324    0.75466104487905   -0.58839282006383
H         4.91410677119467    0.88222371325620   -0.38507079176374
C         4.16782387464907   -1.75679821487379   -0.00784773497984
H         4.08554440053609   -2.69272371497032    0.54182694379971
H         5.15276703001813   -1.71270262125863   -0.46954178655163
H         3.42628650339518   -1.75873866182398   -0.80292715989925
C         4.91721667700738   -2.00025432302118    3.88914245638273
H         3.92420672027249   -2.37269257970984    3.64412108680503
H         5.22964574231589   -2.42515592537990    4.84279270355601
H         5.61697046548723   -2.34325807929759    3.12782731686290
C         4.93184898251496   -0.48967154791539    3.98463298362232
C         6.15028373969901    0.08837133697237    4.36749431549131
H         6.98479727290402   -0.59054758515941    4.46976789658876
C         6.40500618456103    1.43411046584024    4.57977223533294
C         7.85731522258086    1.81597972056719    4.76812655129439
H         8.08719476441640    2.72313984202120    4.21250649124096
H         8.50830229156074    1.01571383194979    4.42539425871631
H         8.07557290839885    2.01023277285682    5.81674532813709
C         5.91016381117971    3.68483170158905    4.96123500707140
C         6.12487038327130    4.03428321560816    6.30453189477872
C         6.45450549353430    5.34934006954625    6.60150674442817
H         6.59590498382717    5.64681256283537    7.62931368967637
C         6.60642892850336    6.29016049844129    5.59937932255643
H         6.85055983382545    7.31174863263412    5.85079865231256
C         6.46958958770494    5.91696459932711    4.27553846431751
H         6.62712437683628    6.65151109127772    3.49973862869100
C         6.14215266933680    4.61232359658157    3.93332139123153
C         5.99550019083453    3.00178382377006    7.40650071182769
H         6.03269325815173    2.00532852992749    6.95379008523117
C         4.64107300451590    3.11813873410186    8.10743698165351
H         3.84469056280804    3.01883592473806    7.36770051167923
H         4.54893944747616    4.08102746102863    8.60395375560444
H         4.53903580453180    2.33235322713070    8.85413259503303
C         7.13429379111205    3.10359604491585    8.42521643702917
H         7.12862441796476    2.23071047502462    9.07497597377887
H         7.02312873343237    3.98558923617586    9.05052618674527
H         8.10157096212844    3.15777146248362    7.92901806496916
C         6.08309446546265    4.19057046980310    2.47824927278559
H         5.96738370794996    3.09848858303042    2.43485618688992
C         4.88146178588368    4.81243578974665    1.76206313061726
H         3.95675834424262    4.47575815057540    2.23805830271983
H         4.87600252059839    4.51064731084691    0.71525058613928
H         4.92697388130738    5.89851690663012    1.80620023470661
C         7.38167454849090    4.55231065285350    1.74951976291577
H         7.37474958360844    4.13156466755484    0.74598154084344
H         8.24884099611161    4.16100870532589    2.27826293984003
H         7.49448116532531    5.62999940788184    1.66334952286173

