41
CSD_code = VOLVOI | q = 0 | S = 0 | Stoichiometry = C16H16CdN4O4 | MND = 6
Cd        2.77141085667714    0.05780382098061    4.00060168409713
O         3.79775292769934    1.75672178465880    4.73914057951418
O         3.77801165029968   -1.75041504617264    3.55106321707219
O         4.59916273995986   -2.95101226112001    1.86016229843183
N         2.19835654358686    0.07495410129080    6.07204986534307
N         2.80270218338732    0.07271011026065    1.85164684612626
N         0.59300722203887   -1.14683515301691    4.35462917095231
H         0.51399547876007   -1.88515498710208    3.66098725172116
O         4.23500464159731    2.89194418177401    6.60862229013986
C        -0.49186388122701   -0.19064703571250    4.18058879525494
H        -0.50013104001705    0.47517922734433    5.04949658472416
H        -1.47390198458074   -0.68696299324896    4.11698681788670
C         1.16694522828010   -0.78211092850780    8.01642004012647
H         0.48178593234675   -1.48083010659457    8.47231177035034
N         0.91775291453506    1.47992065574562    3.07029782448025
H         0.72432106916513    2.23193977720278    3.72570306556114
C         4.04634629028973   -1.97527990845390    2.33545289596974
C         2.25230221330869    1.00239221435676    1.08445190209955
C         2.45777382569898    1.01008553898139   -0.28870409998595
H         2.00640444049623    1.77173301813046   -0.90647346525152
C         1.35900022758412   -0.77789201569223    6.64129201245360
C         2.86778230626009    0.96521504114918    6.79038753012146
C         1.87868129793484    0.12688364031559    8.78962401888711
H         1.75446828706193    0.13574021145379    9.86268182093187
C         3.73664256364902    1.97263028903414    5.98410606194557
C         1.42168062830906    2.03190175283330    1.81805450289208
H         2.07886899836552    2.87355038855601    2.06027515573175
H         0.61263353205445    2.39804105315694    1.16551373205123
C         3.80734795560435   -0.95375775065006   -0.02986966636380
H         4.42042343960121   -1.75472627308070   -0.41119224763378
C         3.25951357229749    0.02163064247590   -0.84622828740494
H         3.44313998517736    0.01293315114219   -1.91070442970024
C         0.66512850743366   -1.72774324143298    5.69033142222080
H         1.27280031631209   -2.63666386101607    5.63084963358868
H        -0.32794482603276   -1.99751088076236    6.08455272671748
C         3.55061681985911   -0.89197018643698    1.33515781397158
C         2.73429289016311    1.02449159205525    8.17307186627719
H         3.29605434712363    1.76359094013397    8.72169033238601
C        -0.26560517943131    0.64449520389602    2.91764544664027
H        -0.09836075526509   -0.02968410198563    2.07154219479717
H        -1.16870416636408    1.24120839405895    2.70998302487411

