51
CSD_code = VOLVIC | q = 0 | S = 0 | Stoichiometry = C20H22CdN4O4 | MND = 6
Cd       10.64802577627862    0.71440006931380    4.41966779882744
O        12.37427253997949   -2.53923043647358    2.53761494506208
O        11.65067300363594   -1.14848757617369    4.12543773460426
O        11.63362221327275    2.53872868506343    4.93335227090073
O        12.04346041682973    3.90934035783858    6.64580950920935
N        10.59937003636079    0.48452312220868    2.30356909597599
C        11.85139719335113   -1.51169212072114    2.93096982068272
C        10.10628212419724    1.19343358257092    0.10792231614220
H         9.61652853549767    1.88939367040391   -0.55646931713237
N        10.15021452310402    0.95402028658152    6.47542478101498
C         9.99899003376604    1.33485805837070    1.48481973085215
N         8.73791212057756    1.98444269004898    3.47131388846216
H         8.58910324204988    2.78590473543906    4.07908370833601
C        11.30276463806000   -0.54008337065432    1.84608079149497
C         9.16082268637099    0.27481531727854    8.50669162410144
H         8.51139537799719   -0.39899645646758    9.04509344182316
C        11.46236914844902   -0.74998354423457    0.48086081926854
H        12.04257453244335   -1.59417354963932    0.14403832139823
C        11.58220600552894    2.89957403244047    6.14418376880526
N         8.53644945176420   -0.48311874842559    4.92288602138223
H         8.50003905028987   -1.28104068629473    4.29373784033418
C         6.06975689212795   -0.48034141406097    4.62425623438126
H         6.15904902880050   -1.17992863474850    3.78861750739077
H         5.94806703406555   -1.06583972010343    5.53753082356058
C         4.99633655332822    1.22053817714059    3.14498156604639
H         4.13105830775872    1.87144852475443    3.01116950011072
H         5.05000081289236    0.55298979514140    2.28242775822735
C         7.51433647690207    1.18607635350666    3.41751035986106
H         7.61627794753310    0.49135560422005    2.57389665546013
C         7.35698893268220    0.35379370683717    4.70915243508316
H         7.29255893838244    1.04775136473895    5.55709501500413
C         9.23228545690259    2.43996029382860    2.17396357416080
H         9.93439833167142    3.26045839897181    2.35747385473657
H         8.43321793351462    2.80879119324947    1.51398270466432
C         6.26674405934068    2.06024849119767    3.21947231052504
H         6.18996600097288    2.75831480386177    4.05761931673938
H         6.36823216858926    2.64745215350765    2.30481185824358
C        10.77326143295168    1.95447054368060    7.07930497723383
C         4.84050364105622    0.39757923586944    4.41739144559794
H         4.72121075878378    1.06620678619627    5.27249019173798
H         3.94795645522199   -0.22660251007147    4.35342711320107
C         9.82674211740454    1.30167594341749    9.16570991107321
H         9.70146366770415    1.42757986458161   10.23132532404914
C         8.71891599946907   -0.95051315912591    6.29519901718141
H         9.41583507397757   -1.79511761906955    6.26638568546135
H         7.78270634101566   -1.28938194926381    6.76285562654616
C         9.35400628637445    0.13008104908856    7.13956078720903
C        10.86276049656500    0.14082435929966   -0.39394252955506
H        10.97065858013113    0.01674388850795   -1.46165227648389
C        10.63680529874733    2.16514676389975    8.44695860108632
H        11.15992632532688    2.98880959247386    8.90593573992212

