80
CSD_code = VOLXUR | q = 0 | S = 0 | Stoichiometry = C24H50MoP4Si | MND = 7
Mo       22.98726643624773   -3.64112034198725    7.38543381241135
P        21.62493030582172   -5.56495351675113    7.86745138552493
P        25.02287765787675   -4.60325834118227    8.31845633992091
P        24.34512888711967   -2.50925818379886    5.74508690425485
P        21.12877468868713   -2.97905319079637    6.02767755376820
Si       22.48328510927169   -3.52906978761340    9.88642978741110
C        20.99905644329984   -6.38952759258457    6.35473055465879
H        20.43695394865287   -7.29079071953992    6.60913585387744
H        21.86491823062682   -6.65745352524340    5.74861398705600
H        20.37043230496257   -5.71303216482818    5.78287567374459
C        20.12835350461877   -5.65358452812495    8.94218172249248
H        19.42353447950151   -6.38983901236710    8.55416058883016
H        19.64274912966365   -4.68630839082401    9.03161499449629
H        20.44883624481422   -5.95523219001519    9.93685851462180
C        22.45936896714486   -7.04152028189171    8.55584745281244
H        21.78685539923072   -7.90136157847772    8.52382301888917
H        22.73526807193216   -6.84069654746836    9.58875989961350
H        23.35066005404406   -7.24809583117246    7.96440834250858
C        25.95355162874215   -5.78566089624490    7.25603045450166
H        27.02508704748660   -5.73514718304178    7.45468612163047
H        25.75544459969169   -5.58937758719313    6.20674691071537
H        25.59871820548461   -6.79053855599032    7.48738001618619
C        26.26741647407315   -3.31886069578838    8.73635888481855
H        27.26222957124492   -3.75254470704394    8.85439429609724
H        25.94762375362736   -2.88086533830160    9.68325055124360
H        26.28469511518323   -2.52709001217306    7.99277788494113
C        25.27289649237430   -5.52233939212858    9.89640413079186
H        26.34375500888528   -5.70037192010652   10.01353215431618
H        24.75872911960861   -6.47885814423936    9.89630292779789
H        24.91794072082311   -4.91851751086610   10.72702541425068
C        24.73582903926573   -0.74149807304974    6.03868717359785
H        25.15160043264641   -0.27245452130456    5.14591518202634
H        25.45594143567765   -0.67851650586263    6.85454004508873
H        23.83319474012101   -0.21912720165197    6.35048014574575
C        23.75398674457488   -2.44451670230714    4.00910657906773
H        24.49378862454352   -1.94527261764755    3.38075973455626
H        22.80411049989514   -1.92641002702329    3.93249720711812
H        23.62504318875378   -3.47167973908773    3.66925459490774
C        26.03182841348864   -3.08959323444072    5.26456836225268
H        26.52470357684171   -2.31380512304773    4.67606283062267
H        25.91517572376746   -3.98044916853672    4.64733324388224
H        26.64740261105084   -3.33607537419688    6.12338126394821
C        19.46157035558169   -3.15372335313896    6.77228232256438
H        18.72875220368119   -2.63495219352959    6.15004431184283
H        19.48356054206969   -2.70057128036461    7.76500020990566
H        19.17727915536357   -4.20038921350722    6.86049939442546
C        20.71956791890574   -3.62269858220889    4.31737549826767
H        20.78212169786088   -2.82738585674717    3.57580441530635
H        19.70947224363896   -4.03206508607479    4.29735634284063
H        21.42550719042706   -4.40655034165907    4.04847831346876
C        20.96425873825278   -1.17203356696806    5.73137920837967
H        20.17476316167285   -0.96664418257988    5.00579494078183
H        21.89984011548806   -0.73415038873425    5.39115062194576
H        20.70123645836015   -0.72010821662490    6.68864102610505
C        20.85601122541520   -2.67228332993016   10.41260534213802
C        20.52577908451532   -1.41756220476419    9.91742568846193
H        21.19404426440928   -0.93791052310375    9.21477841210902
C        19.36970227971822   -0.76391997238276   10.30389084811115
H        19.13724785169439    0.21304436771500    9.90056461094952
C        18.50898529103298   -1.35965001113804   11.21017808252872
H        17.60135860451282   -0.85627281479127   11.51294107051457
C        18.82775163238288   -2.60133874717229   11.73169726674675
H        18.16877723673936   -3.07025908843783   12.45009881625226
C        19.99013280255816   -3.24031755111869   11.33767192381655
H        20.23162304531581   -4.20449784951648   11.76220936232790
C        23.64383062067562   -2.48759569340326   10.99088738689825
C        24.05772036987123   -1.21961182455444   10.60569292757830
H        23.75188381345070   -0.83622937932644    9.64221007067874
C        24.86032606337983   -0.43963918358575   11.41836089880945
H        25.16822199574243    0.54505871500192   11.09232930981093
C        25.27123499977612   -0.91842427622561   12.65088584744156
H        25.90228724234446   -0.31509693005518   13.28859740455854
C        24.86027933982657   -2.17456136961476   13.06097469164337
H        25.16739608689068   -2.55559626121067   14.02573278840070
C        24.05196538148893   -2.94010993381944   12.23903674259882
H        23.72498378318130   -3.91308230308232   12.58105286323979
H        23.75922269237833   -2.39919091190371    8.00713475260850
H        21.93779722020007   -2.48143461318894    7.70333642269760
H        23.25699448327700   -4.72196115093583    6.22788266112400
H        22.40277017696205   -4.75415893924148   10.76099470599682

