111
CSD_code = VOLXAW | q = 0 | S = 0 | Stoichiometry = C54H51ClN3PPd | MND = 4
Cl        7.14037858621726   10.36931393961586    2.24989574602325
Pd        8.99302352438606   11.04707053741940    3.54067703401875
C        10.75045000631471   11.41800911160672    4.42203571994211
C        11.56989573561831   12.55526873602697    4.29449306226203
H        11.20455716276771   13.42538340828421    3.75784728493434
C        12.82178315502670   12.58454751711393    4.84349208541112
H        13.44530255803803   13.46190276008227    4.73730635116830
C        13.32360733596071   11.48423050215607    5.56673288521711
C        14.60117218900985   11.51824581958649    6.16237486726740
H        15.19604066129191   12.41412639136115    6.05134435564051
C        15.07794313012057   10.44974095269604    6.86656359126659
H        16.05772473844507   10.48248682036988    7.32011263990870
C        14.28834164126190    9.29940438098890    7.00801415595260
H        14.66959023473128    8.46063369622212    7.57277071850870
C        13.04583856714035    9.23398984781848    6.44272718204196
H        12.45462168216669    8.34083927774681    6.57927841371316
C        12.52259605089914   10.31606396792140    5.69961933523856
C        11.24502475187985   10.30985270664423    5.08642282163663
C        10.30933353102554    9.11986867356729    5.12887010763534
H        10.84074257122510    8.17124029516119    5.30256272217673
C         9.29931265840932    9.36151555912240    6.25959595508748
H         8.61723404434420   10.17850555061199    5.96457676059324
H         9.83518191562240    9.66706165815281    7.15643604468659
H         8.72013139800823    8.47130196636432    6.49411645736762
N         9.62615610874250    9.04945671711426    3.81590433200617
C        10.58275534597550    8.74595305872663    2.74965833768402
H        10.98117134903182    7.72693817117055    2.85960717357420
H        11.41838568238393    9.44985992880993    2.77054282609386
H        10.07652189090660    8.82186643921208    1.78313622764115
C         8.58901689262833    8.01951280585560    3.80900820772542
H         9.00100094012724    7.05034409626821    4.12295605512284
H         8.18344989410983    7.92397527992815    2.80183580432654
H         7.76486627506813    8.29765506331828    4.46570521733309
P         8.38658901492410   13.16863058500174    3.33981787826751
C         6.59187380096926   13.31278080402288    3.07289996600930
C         5.87422403556194   12.59680213585003    4.05886635719459
H         6.44844863215619   12.05074193381370    4.80852832730182
C         4.51497539148331   12.56531479400956    4.04834327389359
H         3.96638560019462   12.00703899581830    4.79321160625765
C         3.79448553319244   13.25423678845561    3.04626743174853
C         2.38647299530491   13.23440410075428    3.00165969707328
H         1.85390757928580   12.67374156545513    3.75663338413639
C         1.70579734790545   13.90725227258617    2.02513393956296
H         0.62609983551551   13.88759594963669    1.99899154920494
C         2.40650779447730   14.62819326717369    1.04810741809055
H         1.85790713928565   15.15580517208889    0.28167583043270
C         3.77356180631610   14.66255375134853    1.06030214880508
H         4.30852354340842   15.21804320414644    0.30385460821500
C         4.50405012785564   13.98132933818944    2.05604575791041
C         5.92575954272067   13.99687450530834    2.08810228693826
C         6.64146197796738   14.75859407396872    1.04136229024932
C         7.07744171747451   14.11744390737328   -0.14718098018335
C         6.94503413530964   12.74191126602296   -0.41005127197002
H         6.49577550674625   12.09725549147604    0.33103542948497
C         7.41532134958375   12.23588587194780   -1.59085727581491
H         7.32412460583497   11.17991646601215   -1.79658140499033
C         8.02112676258313   13.07410599477175   -2.54081592480057
H         8.38035241586944   12.64662054757632   -3.46632044809977
C         8.16156802869828   14.41490417031641   -2.30969756903429
H         8.62471099315151   15.07452922063757   -3.02662125684273
C         7.69166388022188   14.96749037527191   -1.10282660452635
N         7.81594783340414   16.29293497171045   -0.88109408799867
C         7.37819581266303   16.76856054569713    0.25080675082777
C         7.43943681350232   18.25439087504699    0.48675334842802
C         5.99304633825622   18.77352055328569    0.52924305667181
H         5.50011445548762   18.55014066829991   -0.42044119440038
H         5.44963725974097   18.25565899752932    1.32255661028300
C         5.99363013934232   20.27977229648054    0.77638978470712
H         4.95873132303788   20.64084460686363    0.80033539120542
C         6.75370472764549   20.98064150340421   -0.34861528794396
H         6.26742376673727   20.78001669402140   -1.30607597422435
H         6.74397876776236   22.06132259039115   -0.18755385355537
C         8.19404055241943   20.47078525511503   -0.38153160841634
H         8.74029776922522   20.97392221845062   -1.18773607548827
C         8.19858377660919   18.96437985363325   -0.63343416557665
H         7.72893074700748   18.73661454508090   -1.59108845259547
H         9.22232376765287   18.58801431122936   -0.67450697448401
C         8.11048458893566   18.55986788266123    1.83052413256357
H         7.57046966923672   18.04716400088816    2.62735967728227
H         9.13836884313364   18.18963860683719    1.81879991393559
C         8.10785981923621   20.06701612958924    2.07709588575641
H         8.59528423932869   20.27524226121931    3.03735052345005
C         8.87055046422413   20.77061934119557    0.95556970736488
H         8.88295822400917   21.84860863567757    1.13366776130349
H         9.90638604825178   20.42332291502257    0.93471316496890
C         6.66837233300013   20.57723818819119    2.11435800459456
H         6.12038573594840   20.08765642599435    2.92290830937164
H         6.65912397795493   21.65300802371568    2.30546889626431
N         6.80091963507696   16.04470501982880    1.23321913606833
C         8.52175095806925   14.39232041101163    4.68266878878914
C         9.12745906724949   14.04511880009670    5.88339101258186
H         9.53443208723816   13.04746078554656    6.00163876130579
C         9.20538702954967   14.96842113950482    6.91120186491126
H         9.68011448991115   14.69783957816578    7.84288737799541
C         8.67326259746659   16.23612755580544    6.74460581875180
H         8.73884442864777   16.95840611995740    7.54503611713748
C         8.04109758361101   16.57478814180706    5.55809883870842
H         7.60971360163451   17.55812950813723    5.43850418802786
C         7.95198394293295   15.65411093900627    4.53039635286418
H         7.43006339755156   15.90144573063068    3.61518032063845
C         9.32579814302296   13.82400947998340    1.92603143996690
C         9.73536858786990   12.85636873012778    1.00578401845498
H         9.44141560206276   11.81192906027705    1.15900745735040
C        10.49572478379511   13.21841806493020   -0.08891048380749
H        10.79937052434089   12.47216517349388   -0.80810872737468
C        10.87261232023714   14.54144912723975   -0.26073972448571
H        11.46296741034364   14.82787886096284   -1.11809471008832
C        10.50722651168589   15.49437444725205    0.67464750671403
H        10.82157891163386   16.52002114462899    0.54890750183507
C         9.74128062742720   15.14065146006639    1.77170673836268
H         9.47135666194539   15.88369563822450    2.50731023716715

