63
CSD_code = VOLYAY | q = 0 | S = 0 | Stoichiometry = C12H44MoP4Si2 | MND = 8
Mo        4.82415625980862    0.00012334565836    2.09031137717207
Si        4.53464688390871    2.44616547783012    2.76883104458012
P         3.18845639306444    0.75935800860069    0.47301226408528
P         3.07002855242107   -0.35281521986820    3.76706350758402
C         2.35096103673252   -0.52172559697263   -0.53822318500693
H         1.72904973022276   -0.06240480233478   -1.30895229765927
H         1.73075703759812   -1.13383986115467    0.11656007942777
H         3.09438880242201   -1.16687453784083   -1.00118740624748
C         1.66770973130791    1.69154053013958    0.92879765277843
H         1.05770211022060    1.84795923634899    0.03752076100225
H         1.93628220240868    2.65186141492805    1.35996523144124
H         1.09324866495107    1.12278199020307    1.65773876265539
C         3.77840322525142    1.84575788599516   -0.87818541729932
H         2.93977780923008    2.22123774276901   -1.46619961892754
H         4.43943037484905    1.26550591048490   -1.52226150024842
H         4.33100000760863    2.67902617896351   -0.44790676215118
C         1.66093680415698   -1.38439421349758    3.19908775052824
H         1.03509414014661   -1.66050599776850    4.04994426172884
H         2.04246809566446   -2.28387267211273    2.72074733006329
H         1.06335907296139   -0.82673100716067    2.47882494630930
C         3.46298770803166   -1.30179060609026    5.29739338541216
H         2.70174970101291   -1.12353032850298    6.05874952761891
H         4.43819359589877   -1.00965275943072    5.68332537867204
H         3.49685868427142   -2.36142341286852    5.05778002047368
C         2.06808580402501    0.96157759481972    4.58121447898311
H         1.21750668792697    0.50530287325094    5.09110497141582
H         1.71463391679779    1.68363022389058    3.84893072589763
H         2.68497140688464    1.48675066104324    5.30890637700208
H         5.75304227686228    3.28719691034685    2.91549291041870
H         3.87487783885604    3.34786309609767    1.79228814707552
H         3.84941731987984    2.91806210338242    3.99192928308309
H         5.68696597079106    1.14709518052282    1.40132432781953
Si        5.11334440386352   -2.44516525417305    2.76951288415444
P         6.46025196974995   -0.75937618430386    0.47288619611787
P         6.57867431847561    0.35253331889242    3.76732874054781
C         7.29747795129393    0.52176417800542   -0.53849472305280
H         7.91939483634653    0.06243965372929   -1.30921059256691
H         7.91764045246992    1.13404838459033    0.11617587565998
H         6.55392306847896    1.16674403340109   -1.00148648557298
C         7.98119919717943   -1.69121433033033    0.92872544056742
H         8.59105821611103   -1.84777034530629    0.03737591115106
H         7.71278815077502   -2.65147577726475    1.36011414455232
H         8.55573134987557   -1.12224930456979    1.65745927709161
C         5.87010841525286   -1.84596909935192   -0.87804699768151
H         6.70867563956784   -2.22133987908595   -1.46620676063347
H         5.20879855765789   -1.26590896946697   -1.52200723425588
H         5.31778524332232   -2.67928589773534   -0.44752048450902
C         7.98762202249788    1.38430303178436    3.19928562898270
H         8.61344507468266    1.66049715154510    4.05012710922789
H         7.60599628858612    2.28377737535626    2.72101880535717
H         8.58529118776203    0.82682000533473    2.47894443488309
C         6.18546800662276    1.30150672772469    5.29758355842672
H         6.94691076938219    1.12356161249654    6.05880256702573
H         5.21043954523478    1.00891935510027    5.68363623140505
H         6.15111071753248    2.36112630619470    5.05797692507730
C         7.58092134709523   -0.96180380650494    4.58108312658079
H         8.43152950398970   -0.50551422684037    5.09090887209320
H         7.93423058242330   -1.68380363065022    3.84866474271719
H         6.96406611061460   -1.48696427680391    5.30879467271992
H         3.89525534506521   -3.28693247201131    2.91487394177563
H         5.77455103780453   -3.34692598799859    1.79393740430354
H         5.79872353582398   -2.91831991172719    3.99196636464613
H         3.96133930832734   -1.14725712967423    1.40206210751432

