83
CSD_code = VOLYIG | q = 0 | S = 0 | Stoichiometry = C24H52MoP4Si2 | MND = 8
Mo        5.06261526012074    3.27229065085649    2.25141873966724
P         4.84385021349329    2.99166555161977   -0.20655782032252
P         5.96287461464868    0.99030932227815    2.74386016441144
P         5.30817983709145    5.68059114883498    2.15717689389465
P         4.11990257403401    3.42355834495550    4.49087501998707
Si        3.00736187716924    1.78036617177772    2.06675042268205
H         2.52162702930541    1.02583216270491    3.26723958538116
H         3.03035398884004    0.59573101733130    1.14437318933753
Si        7.39721456758223    3.43039830533515    1.25199361863328
H         7.81169212345730    4.72969298546394    0.62008987378862
H         7.80202819490033    2.57684880941992    0.08522453868468
C         3.16117319503596    3.26315751368070   -0.89107306869142
H         3.20391246998263    3.25525356704335   -1.98170507680433
H         2.78172488930440    4.22630676974354   -0.55064567595429
H         2.48017354924798    2.48876824133802   -0.54956643521653
C         5.15118686112980    1.31993219854033   -0.89246241256530
H         4.74558755240023    1.25560956035261   -1.90353068526433
H         4.67163853361585    0.57342353055890   -0.26351179667219
H         6.22554930759078    1.14689613334472   -0.92085909443737
C         5.71055623092841    3.92127568200986   -1.55069053235811
H         5.59304177360154    3.35839235275313   -2.47806219001738
H         6.76727298537103    4.04587313218446   -1.34424291075789
H         5.24868097760436    4.89756357539401   -1.67976205271821
C         7.01339590039528   -0.00455241371440    1.60003667570955
H         7.52417299590080   -0.77307945052586    2.18267841770865
H         7.75532314973583    0.62105084665661    1.11430319187119
H         6.39197596261195   -0.48779374983646    0.84867442904131
C         7.18197569301507    1.06792837414344    4.11375856932784
H         7.38282767275705    0.06898593516500    4.50447092556494
H         6.82298339467674    1.71309958911944    4.91245006058621
H         8.10371905035328    1.49592215178314    3.72208742182741
C         4.97758763845160   -0.45562762681151    3.31704119201977
H         5.65887614071448   -1.25916251177034    3.60065943603623
H         4.33816618734966   -0.79419952586860    2.50521078509340
H         4.34863094772339   -0.19810682040035    4.16186011592243
C         5.31456849207736    6.49973134512607    0.52079590622166
H         5.32580472323525    7.58436614260093    0.64072731547907
H         4.41354284905723    6.20261856576376   -0.01565532675421
H         6.19576972579855    6.18707599217991   -0.03329822659709
C         6.76035996660009    6.53297348306426    2.88609130040536
H         6.65607442617838    7.61260523044789    2.76851234401429
H         7.66086280029847    6.19567893098696    2.37886431979059
H         6.84506982706179    6.29300609714126    3.94434117058058
C         3.97486548335312    6.72033423484059    2.88070304237144
H         4.22136664230470    7.77718862133870    2.76435098665285
H         3.83345999956277    6.50087245884905    3.93603943589840
H         3.04855929462388    6.50869626772507    2.34601759670635
C         2.40541704494696    4.03855806127875    4.70192026418116
H         2.18048273603784    4.16500612324221    5.76210287057751
H         1.72665696816783    3.30553802581741    4.26912576568550
H         2.26369484583494    4.98303685925907    4.18502305858118
C         3.95253548961060    2.00571069246633    5.65403120820218
H         3.65529804846093    2.38459566711866    6.63333417667664
H         4.89168726519442    1.46637438676789    5.75102763315952
H         3.18133140023947    1.33181900623506    5.28747458911232
C         5.03080913148008    4.51713014897053    5.65242017847095
H         4.46914052881617    4.66153634995701    6.57691964706804
H         5.22719420324725    5.48031377082764    5.18841960881490
H         5.98755334299450    4.04400731084643    5.87859733306925
C         1.28163496615341    2.44255057357892    1.57561217837878
C         0.92971304767022    3.78316970584438    1.57087389137988
H         1.67233250522613    4.52397287819929    1.83606887422272
C        -0.34236812755122    4.20292610811670    1.22343790904724
H        -0.58609172145468    5.25736313634049    1.22980872252690
C        -1.30255753176959    3.27339117376307    0.86587859399274
H        -2.29757081322194    3.59406422481203    0.59082483585101
C        -0.97441849653841    1.92819288027630    0.86293216606874
H        -1.71612646367603    1.19209045590663    0.58426731952186
C         0.30070859177436    1.52720516796165    1.21656468655010
H         0.54908510602076    0.47556583896388    1.21322331130325
C         8.96953866403881    3.19217227475235    2.29833069582322
C         9.12637574862679    3.80329366312253    3.53497981831660
H         8.31137906627607    4.38693409035621    3.93874187080118
C        10.28724883431973    3.66424161454162    4.27375933718939
H        10.38109468537645    4.15448164521148    5.23370106207956
C        11.32936392088228    2.89464664597830    3.78530060443391
H        12.23850744602380    2.77967277336992    4.35857594425491
C        11.19415954942096    2.27375103716603    2.55586728171830
H        12.00104377606760    1.66969175055831    2.16375716986791
C        10.02848858917310    2.42919661089163    1.82671207606978
H         9.93982903352473    1.94677821879293    0.86344358188208
H         6.17391169043281    3.50333781964970    3.36872488888783
H         3.74407935789829    4.09353441352960    1.88966346605597

