90
CSD_code = VOLZAZ | q = 0 | S = 0 | Stoichiometry = C33H51MoP3Si2 | MND = 9
Mo        3.21339504729175    2.51806146999497   14.76033370171409
P         5.31159052247380    3.34979929738827   15.65569844903460
P         3.19302871408728    0.54145972178893   16.15959931079279
P         2.15647019840788    1.48237033669274   12.83671492200497
Si        2.44597909177448    4.91405044230478   14.48279693909795
Si        0.10781827765666    4.72452997114565   14.71904705131650
H         3.91337267843418    3.14477528036214   13.45257535675354
H         1.63633375424655    2.30228071615398   15.06930183129492
H         4.33750115335662    1.51176541170512   14.19390512793393
H         2.92030218279995    3.07508600534385   16.24953278759963
C         5.37931234460295    4.27009672545670   17.23888334066971
H         6.40600739324049    4.54585993695052   17.48201193425732
H         4.96469361956072    3.65218840579861   18.03398899744673
H         4.76875781638634    5.16636856551394   17.14766701306068
C         6.21653502977267    4.53391916524828   14.58650085702862
H         7.16042779281507    4.83370601556049   15.04392841760066
H         5.59066612384796    5.41015164404160   14.42412530311895
H         6.40761673734180    4.05475903051873   13.62706406198139
C         6.69549431866816    2.16829836833674   15.94828713717388
H         7.60532457370702    2.69770346744383   16.23492279459624
H         6.86969727546824    1.60849623678484   15.02970553632596
H         6.41839942122955    1.47214633986976   16.73976099935190
C         3.45952049589360    0.78153776157850   17.96216576336109
H         3.41299252636063   -0.16684004197255   18.49944650009278
H         2.68848908380365    1.45566553518324   18.33336834408555
H         4.43119893127107    1.24796539043466   18.12170705122060
C         4.35738746614269   -0.84683262212097   15.86730031938224
H         4.19677669243397   -1.64683494406608   16.59088261466287
H         5.38022262085723   -0.48372491393271   15.94112387508505
H         4.20296925980128   -1.22820141198975   14.85915504949152
C         1.63728851688725   -0.43487735808287   16.26543489714141
H         1.71377305382738   -1.21346677685005   17.02569068647186
H         1.44403535884593   -0.89322240009102   15.29557919729327
H         0.81610262926605    0.23915908491913   16.50638882425323
C         0.42082367525861    0.88467545163245   12.86511632474886
H         0.17548409758465    0.37785059949818   11.93118508659033
H        -0.23940245265996    1.73991815986328   12.99891661231253
H         0.27792425130489    0.20349260526033   13.70135841944987
C         2.97369029493727   -0.01143671128776   12.14490385585831
H         2.49898393983299   -0.32224221192336   11.21330965524508
H         2.91343701316621   -0.81869586313045   12.87509303543219
H         4.02230897309535    0.22345859070788   11.96787487276856
C         2.07033924308180    2.47665291937233   11.29381310539487
H         1.54940963226224    1.93205228654409   10.50557972635713
H         3.08583609171951    2.70466938388763   10.97421173242406
H         1.55036460082592    3.41148781002017   11.49966381724632
C         2.79853076738864    6.26034313630686   15.81413457900711
C         3.67143213296414    7.31249310039922   15.55457663335845
H         4.07705896418113    7.42894024698503   14.55827322789309
C         4.02429450995335    8.21999447974663   16.53787942631432
H         4.70524621550073    9.02824943073081   16.30834105017379
C         3.50498154811193    8.09399020510190   17.81477852049735
H         3.77696515069072    8.80050561136941   18.58617677927803
C         2.63255216744316    7.05453870233747   18.09537215831422
H         2.22045302921924    6.94885640958242   19.08963724696407
C         2.29149995186430    6.15089360712471   17.10606139308625
H         1.62174055164510    5.33565331961168   17.34286240844940
C         2.52509689210738    6.04882463211988   12.92446331359608
C         3.41276534688669    5.77350070987927   11.89430726704020
H         4.04396099625403    4.89843166477724   11.96750208835726
C         3.50902113339098    6.59106525812933   10.78100879919431
H         4.20907952900601    6.35209380067084    9.99186289281221
C         2.70980662942198    7.71607352505958   10.67942518267635
H         2.77798231517083    8.35713786943570    9.81183880138450
C         1.82515962506165    8.01725941322411   11.70237501833985
H         1.20161310191880    8.89813512686037   11.63491620962181
C         1.73999372122974    7.19255991181502   12.80945680500183
H         1.05135892590584    7.44169402091153   13.60659618241201
C        -1.03143301921404    4.23652485193800   13.27682742366668
C        -0.75221180510521    4.72064280094583   11.99729895593994
H         0.08129742669737    5.39408410626822   11.85769892332010
C        -1.52792808858008    4.36386446948729   10.91051228586535
H        -1.29014674283034    4.74984625282523    9.92952724128469
C        -2.61056371891632    3.51488881446844   11.07761056266252
H        -3.21845912128920    3.23533499832847   10.22948363638377
C        -2.91057299357286    3.02957624066191   12.34013352425232
H        -3.75451575434059    2.36836712732566   12.47756829174616
C        -2.12967821573572    3.38465963065532   13.42454225237501
H        -2.36868127750667    2.99231701186686   14.40303500696615
C        -0.91049624840433    4.27318459115930   16.25505241654045
C        -0.38452366966823    3.42619006607798   17.23012586840152
H         0.58164703155398    2.97105078990159   17.06386613743823
C        -1.08495511412342    3.14807529245672   18.38920985050875
H        -0.66212042044872    2.48203194005849   19.12870770707957
C        -2.32677119301403    3.72203798490576   18.60672376152858
H        -2.87414050575149    3.50678310332262   19.51299545842380
C        -2.86213459753585    4.57537975279149   17.65494201256496
H        -3.82976745744981    5.02790072443193   17.81978201264093
C        -2.16026735789296    4.85013415542319   16.49699096873910
H        -2.58355042499656    5.51700823458583   15.75879848156091

