59
CSD_code = VOMBEE | q = 1 | S = 0 | Stoichiometry = C24H31ClP2Rh(1+) | MND = 6
Rh       18.15735961270823    2.23969797213063    8.73000898603913
Cl       18.18359621073605    1.55335049431948   10.91688504520819
P        16.01284797989771    2.93588943984804    8.96949708333939
P        16.21949627538889    0.01590360826783   11.34755803848688
C        20.29751256867905    2.47345469396558    8.46488849858194
C        19.95047572275453    1.19975759434598    8.07967419930473
C        19.61022952301064    1.27502570474511    6.59092027174927
C        20.59977372054352    2.35719129607893    6.13042551887017
C        20.17290367750550    3.35331969929527    7.22078043667759
C        18.65775480468976    3.36662319541018    7.01376755436569
C        18.30812346509159    2.07659378087621    6.62703834174852
C        16.01137531638222    4.51679030312100    9.86392799251460
C        14.84375413279708    5.19628642584115   10.20274468207751
C        14.91988333780181    6.40111661140499   10.87651007489783
C        16.15384055412724    6.93663997974594   11.21369840755269
C        17.31883538702559    6.27009710004735   10.87056478364421
C        17.24760785492541    5.06483520107745   10.19625644735036
C        15.06435121588306    3.26050090927467    7.45156135153045
C        14.62683228618035    2.17295137618533    6.69824060006760
C        13.96170502543485    2.37393175364092    5.50383944984676
C        13.74326723466018    3.66246496383286    5.04177020255277
C        14.20114382264756    4.74640783801892    5.77191061466959
C        14.86666330875074    4.54942957691807    6.96931707445706
C        14.76647224810871    1.94839176952315    9.93328985010498
C        15.25738134019294    1.59257796286401   11.33429220127890
C        16.78576990736857   -0.71106773530841    9.76085468527113
C        14.80932689070940   -1.13752489595132   11.65095099770080
C        17.19321268651481   -0.31527052128791   12.85337825382763
H        20.83397596871648    2.76307068944230    9.35958830283866
H        20.17193443247588    0.27804364498164    8.60207244430145
H        19.59289039686473    0.33646572361758    6.04491236651976
H        20.40048113759678    2.71696307759978    5.12188118426045
H        21.64128250416379    2.04922192311691    6.21604762191065
H        20.67119739652221    4.31748627320943    7.25234232883701
H        18.09189011422729    4.26962567844874    6.82386801941603
H        17.42303325655151    1.79448306138408    6.07167823954502
H        13.87858690700171    4.79529886746005    9.92601418278874
H        14.01403472652452    6.92726934590560   11.13680850508630
H        16.20556065410395    7.87716442355864   11.73999402780403
H        18.27914342311469    6.69011960632738   11.12776868148867
H        18.15816132083444    4.53081980328136    9.92022445355433
H        14.81479896082030    1.16585573896529    7.04846916215555
H        13.61750205906311    1.52737222402264    4.92910806437464
H        13.22399907661929    3.81959258898213    4.10924544948819
H        14.04247209270646    5.74980748923827    5.40738235260707
H        15.22843674330354    5.39764844388400    7.53303501383273
H        13.85848295118731    2.55567340363051    9.99935730977075
H        14.51620711531987    1.04559514977261    9.36935730066575
H        14.40540132362502    1.42037808893515   11.99815521664317
H        15.85807750524332    2.40450592807101   11.74960886104625
H        17.70985261427303   -1.25113797090604    9.96743712184829
H        16.99940842201844    0.06582335334998    9.01321926017536
H        16.03811970165184   -1.40809984455363    9.38827455124169
H        15.16883814478964   -2.16583256007895   11.64629739095337
H        14.35508317012841   -0.93639165445567   12.61986124420498
H        14.04447293705854   -1.03480784146049   10.88273176269947
H        16.70222644916844   -1.07758201496094   13.45287236638811
H        17.28573022713198    0.60564367524014   13.42595624952864
H        18.19222215666025   -0.64524241420710   12.57617932030151

