52
CSD_code = VOMBUU | q = 0 | S = 0 | Stoichiometry = C21H22MnNO6Si | MND = 8
Mn       -0.57393201344203    1.03094815502712    9.11351582773480
Si        1.76932299036358   -1.61292563470807    7.96368824419692
C        -1.28963696101135   -0.24670731390093   10.13111079047289
O        -1.70987646168045   -1.10143755797992   10.77808337082992
C        -1.39598353574444    2.28580408581189   10.07726480948712
O        -1.93158677769574    3.10852387239053   10.68544503641672
C         1.00233864373362    1.07269501008494    9.94041421885974
O         2.04425364903008    1.06031096165761   10.42376999984477
N         3.04621824375801   -3.39186924739754    8.66416752408542
O         1.33420021107581   -2.69280941103689    6.79627083742163
C         1.65800788212683   -4.04936281469755    6.81458928801354
C         3.01178751202783   -4.25548447747683    7.50724861628552
O         1.11982371344626   -1.82674475561251    9.46208606844538
C         1.61725052138670   -2.66384627284876   10.46136140157751
C         2.32711629352031   -3.86929757116833    9.82430880384706
O         3.24821168510280   -0.91445221262047    7.82680756233829
C         4.46353177074097   -1.58081543401323    7.95682393191833
C         4.31370525182195   -2.75454895737287    8.93460378251523
C         0.67934217722646   -0.14849848377081    7.49355883595806
C         1.24994573645474    1.12985234191703    6.91945314601456
H         2.28072485338968    1.26056242194679    7.26440187577915
C         0.35898041024522    2.21431108199933    7.48843045667860
C        -1.01671306739797    2.08252753610296    7.28347965383672
C        -1.57510285825644    0.78684749525020    7.23871824132231
C        -0.68722759829334   -0.31999903166068    7.39416915379763
C         1.26004692161905    1.14798647934737    5.40058485473860
C         1.52695122556772    2.33748806266544    4.73124907319419
C         1.52451600760496    2.38653131617489    3.34938342316159
C         1.25938263987516    1.24362152340636    2.61438704833884
C         1.00563066656542    0.05330058161380    3.27275080814787
C         1.00407499412882    0.00461247576048    4.65645985060335
H         0.86875473235534   -4.59588398350979    7.34600876385900
H         1.69544541559128   -4.40757916056373    5.78191019817252
H         3.80128021532834   -3.94275426373501    6.82271934027062
H         3.15977937514795   -5.31311741869261    7.75945737010116
H         2.31208113355924   -2.08887267584786   11.08563398075854
H         0.77935492597668   -2.98893294260414   11.08357282358893
H         1.57222433431243   -4.58190495277833    9.48954721411988
H         2.98103199498089   -4.36379034994363   10.55281096600598
H         4.77920143790671   -1.93878505255691    6.96824229752826
H         5.20899757075154   -0.86955751507170    8.32309054807253
H         4.28204222597905   -2.35498855167213    9.94886912159411
H         5.16427475559868   -3.44250812992117    8.84733993041976
H         0.77710477973926    3.21497121111496    7.56613032443005
H        -1.66478235404712    2.95705469167213    7.23631154352411
H        -2.61460167751676    0.63253730359365    6.96680896863105
H        -1.10647819697929   -1.31969225461958    7.48240126043776
H         1.73972821654673    3.23444046409126    5.29554212307243
H         1.72975054341896    3.31959705114171    2.84434513839485
H         1.25500652668745    1.28100646444912    1.53469917398676
H         0.80578958522640   -0.84523142017842    2.70630179229963
H         0.81440973214885   -0.92933273925512    5.16337058485937

