129
CSD_code = VOMCAC | q = 0 | S = 0 | Stoichiometry = C68H42F6N8O4Zn | MND = 4
Zn       -1.69695501539684    9.40100345375443    3.75452116242937
F        -5.63102298956040    7.07546178557867    3.90951224871975
F        -4.33851053412743    5.65874573147740    2.93435245450166
F        -5.28141958487049    7.22121288554600    1.79243794235858
O        -2.44036174048874    7.64659451702588    2.59649616102147
O        -3.67590894773096    8.87749908801326    3.93362694685759
N        -1.85359371081784   10.28594220682852    1.88359726632713
N        -4.59234767800337   12.21005291436383    3.16786579842059
N        -9.26252134054291   10.77361348032199    0.46831009887857
N        -7.21357336638552   10.76373648489346   -1.48480381294918
C        -3.47875142695767    7.89376402398537    3.19877321771233
C        -4.68711964351607    6.94406190328773    2.97255592401180
C        -1.26782518547727    9.68821320143863    0.85348351025088
H        -0.44845495985224    9.02912962262387    1.09821371975174
C        -1.68116952928654    9.88277588623900   -0.45123352105181
H        -1.17705192828148    9.37933659496034   -1.25981173569437
C        -2.76604895367196   10.71523557249899   -0.68882687993604
H        -3.13064602841305   10.86518300040643   -1.69360707346952
C        -3.36098177596811   11.36299436363732    0.37612847676495
H        -4.19145346128426   12.03599718425282    0.22910062672274
C        -2.86300606757722   11.14280171141283    1.66092784486857
C        -3.30119042311615   11.86568833364035    2.83679121574245
C        -2.42357085402306   12.32917251670628    3.79886380219884
C        -3.21625659432094   12.96061523230647    4.80140198908740
C        -2.91084694812817   13.59104778034550    6.00817819878899
H        -1.88343570020753   13.68948153731690    6.32552919186831
C        -3.94563756429758   14.06736332973539    6.77786966902375
H        -3.73593973771639   14.55509663015117    7.71811556958276
C        -5.27624519332980   13.92173178373920    6.37138840317764
H        -6.06313004651054   14.29169489926302    7.01134591211682
C        -5.60409873165658   13.31701481018319    5.17803269334535
H        -6.63403486879139   13.19487102310809    4.88080446583281
C        -4.56373330287360   12.85097466111758    4.38096458602356
C        -5.75643842617912   11.85263904822457    2.46678793580989
C        -5.93805137178701   10.54408293689834    2.03063445043275
H        -5.18367138801178    9.80703049588759    2.24958296354929
C        -7.08862497807886   10.18929803683652    1.36062623865690
H        -7.23078464856724    9.16913954951349    1.03922392857840
C        -8.07465850376165   11.14142485527784    1.11379318892128
C        -7.89104371083190   12.45094900564647    1.54387003824109
H        -8.64840659778901   13.19086048417326    1.33437797177836
C        -9.35319358825869   10.07527096616579   -0.71900398539361
C        -6.73612830036176   12.80725249726791    2.21312230792767
H        -6.58232559721104   13.82898265703027    2.52658488397808
C       -10.66848809866133    9.77070151798424   -0.97048949322960
H       -11.05051552491777    9.26988452344938   -1.83794320359050
C       -11.43603856673966   10.28895042542684    0.10216058664468
C       -12.79922799408945   10.28686062734277    0.40424220763760
H       -13.50526903156511    9.82286523333558   -0.26801729158587
C       -13.21346167375594   10.88031417492476    1.57351932463417
H       -14.26311186106141   10.89156753682634    1.82750174877532
C       -12.29806385963720   11.46541390837856    2.45468547425752
H       -12.66126996571328   11.90946750152979    3.36968532140124
C       -10.94756192800357   11.48434373114682    2.18233900910099
H       -10.24350091964537   11.92467526821485    2.87235429856168
C       -10.52216062988825   10.90812149318390    0.99087568375609
C        -8.20020030431624    9.87075067839288   -1.57709148363869
C        -8.15420976370228    8.80763126264568   -2.48465151898358
H        -8.96544078114479    8.09860180336569   -2.52759654763921
C        -7.04834858246299    8.67912399188614   -3.30188607211405
H        -6.97999421445935    7.86323704064514   -4.00690845039675
C        -6.02663229610212    9.61351749072517   -3.20344935176788
H        -5.14976378561696    9.54935926768714   -3.82871724584204
C        -6.16980518110353   10.63514055872274   -2.27842923967725
H        -5.41610963854351   11.40494477790145   -2.16912036771014
F         2.23670760430848    7.07525432432566    3.59948645686067
F         0.94461988258697    5.65870039645558    4.57544148192022
F         1.88769302161704    7.22160224626644    5.71662035641386
O        -0.95371868354330    7.64633897004016    4.91301119379166
O         0.28156107773162    8.87728746276957    3.57566785469110
N        -1.54047916570414   10.28594016289417    5.62549626024479
N         1.19797912155328   12.21034223670592    4.34115014493868
N         5.86801330432605   10.77357283709487    7.04071816798703
N         3.81932533466418   10.76401414926971    8.99392583647764
C         0.08455431965940    7.89354659438332    4.31060013317171
C         1.29308492681968    6.94403771859924    4.53674667647249
C        -2.12613552674554    9.68815876795177    6.65564342139895
H        -2.94517926353398    9.02866670135169    6.41092583008616
C        -1.71267007805917    9.88268934583485    7.96032793459031
H        -2.21653523735798    9.37900654189473    8.76891237500406
C        -0.62790028999380   10.71530677677804    8.19786390707110
H        -0.26333717329833   10.86539655503303    9.20263427809988
C        -0.03319358553713   11.36323822226186    7.13288751297118
H         0.79705490949204   12.03652138332939    7.27989220802845
C        -0.53118707506202   11.14294316850615    5.84811561205403
C        -0.09314851166813   11.86588518879944    4.67222841222953
C        -0.97080067615708   12.32924184289409    3.71013142492004
C        -0.17814915626684   12.96067556527655    2.70755054347472
C        -0.48358358624811   13.59096163245477    1.50070465817475
H        -1.51099884286876   13.68932138772613    1.18334354510067
C         0.55118416126237   14.06731199167804    0.73100092483745
H         0.34146053806808   14.55498125757675   -0.20927236055311
C         1.88179291907181   13.92189679640826    1.13755497407942
H         2.66865660338969   14.29189118527639    0.49758955222753
C         2.20967267885301   13.31731358206768    2.33097129105331
H         3.23961031760890   13.19529290749539    2.62824753531108
C         1.16933044252735   12.85120457510598    3.12802606563458
C         2.36205070881486   11.85287505244471    5.04223504532836
C         2.54364214738454   10.54424988371097    5.47818356303742
H         1.78929648153438    9.80722603964963    5.25902500015138
C         3.69415601587512   10.18936928971470    6.14824166496598
H         3.83630546605974    9.16916149463489    6.46949262416579
C         4.68014511097581   11.14147878672764    6.39529875574664
C         4.49655106327559   12.45107373402013    5.96542748940891
H         5.25390278904499   13.19094503178422    6.17510005851249
C         5.95874050964092   10.07519590471378    8.22800099586501
C         3.34168888025730   12.80747407764881    5.29613696512213
H         3.18789282728263   13.82924784167827    4.98281190838468
C         7.27403921214595    9.77055595372505    8.47937756858554
H         7.65610208948004    9.26969248938498    9.34678966740993
C         8.04153071253439   10.28880007400394    7.40667572964106
C         9.40469234809978   10.28669141911051    7.10446086627560
H        10.11079480853090    9.82267183895356    7.77663877774757
C         9.81882536465181   10.88013864272396    5.93514297254496
H        10.86845140890042   10.89136553783283    5.68105942402762
C         8.90336408054156   11.46525083637617    5.05404958923816
H         9.26649373506745   11.90929184812616    4.13901340539145
C         7.55289298308289   11.48422230439562    5.32653248212851
H         6.84876078922206   11.92457748189351    4.63660383742984
C         7.12760524652511   10.90801627164311    6.51804292877227
C         4.80572679485870    9.87076458864010    9.08608508585839
C         4.75946767084656    8.80752278209958    9.99347986390353
H         5.57056097433189    8.09833130462527   10.03637945048877
C         3.65353324987549    8.67913598388662   10.81064003559885
H         3.58498369546623    7.86318833868605   11.51557389603907
C         2.63208097722943    9.61383399776539   10.71237838902829
H         1.75516279564419    9.54976347824429   11.33758583267941
C         2.77554746069521   10.63560421399731    9.78756532378818
H         2.02197283576896   11.40552950579781    9.67825720959901

