43
CSD_code = VOMDUX | q = 1 | S = 0 | Stoichiometry = C12H24AuO2S4(1+) | MND = 4
Au       -2.10761706228924    0.33514965222808   10.50700140876647
O        -4.44141238421515    2.92170621082399    9.76821665348168
C        -5.12648315387708    1.72177447732929   10.02851122343122
H        -6.17879275634052    1.92105289482599   10.28011496338948
H        -4.66262802896864    1.18759981625910   10.87179568959487
C        -5.06965455073830    0.86281627498932    8.77424667372494
H        -5.51711397711176    1.38313254134419    7.92926077131681
H        -5.58328517850746   -0.08429914854468    8.93006082977295
S        -3.36684817499176    0.42103868007066    8.26311506832350
C        -2.75611745411215    2.01819875842900    7.58886561886453
H        -2.68479237494213    1.87222438233713    6.51006264359858
H        -3.52562392056646    2.75340284805474    7.81186309766454
C        -1.40097198651972    2.47145900971364    8.09644247584534
H        -1.13842514475003    3.40526434250731    7.59705473962170
H        -0.63082452939543    1.72953488177433    7.88169402568001
S        -1.20719132547060    2.76226811675596    9.88960519803415
C        -2.42417364330073    4.07659592993156   10.28768958731547
H        -1.93514642906857    4.69353847983662   11.03933266373583
H        -2.58110539226146    4.65867378702095    9.38204560371028
C        -3.74553230159776    3.54342368172721   10.82511710373898
H        -3.55860055775931    2.83515719500944   11.64250751936252
H        -4.33645721266648    4.38196294175231   11.21789982252206
O        -2.19951670700011   -2.99598332249719   11.72767571951357
C        -3.51074286096511   -2.52276903898430   11.54364322472513
H        -4.22005419159342   -3.35996028184486   11.46513973139343
H        -3.57906636321257   -1.92121528932841   10.62366870548426
C        -3.87693545905749   -1.66970467206084   12.74856805469829
H        -3.79750244117933   -2.24612538916820   13.66851910197966
H        -4.88775255433088   -1.27704575228638   12.65243952142901
S        -2.79662775794279   -0.20603790983246   12.96021655457851
C        -1.24440849290521   -0.97193050674589   13.57553477613616
H        -1.16534759772435   -0.67717370201731   14.62292278341075
H        -1.38920618158763   -2.04727990344357   13.50437882834112
C         0.02282568019904   -0.53943642712754   12.86389360145602
H         0.87370284143140   -1.02830968809001   13.34047389714373
H         0.15937978692827    0.54114675236250   12.92325380278025
S         0.16098051754977   -0.87480266649640   11.07291498061553
C         0.02256832567610   -2.69882240126290   10.92294188277773
H         0.70893495434735   -2.96723760648381   10.12188880780668
H         0.36914883201479   -3.12781127500969   11.86077530825493
C        -1.38356382168787   -3.18128090540290   10.59324979750555
H        -1.77659448120884   -2.62598750093073    9.73183941851678
H        -1.34412448835204   -4.24770826713086   10.33295812010029

