69
CSD_code = VOMFIO | q = 0 | S = 0 | Stoichiometry = C25H38AuF3IP | MND = 4
C         6.38871458586729   -0.76598869713902   13.87202271643979
C         7.15501151386456    1.31523074209436   12.40903737387049
C         6.10286900641191    1.51110528541971   11.52941400315506
H         5.08823272567080    1.59201167331804   11.89484582226476
C         6.33511558994768    1.57721478973598   10.16425261606484
H         5.50386816479257    1.73000900476703    9.49220641904999
C         7.61965014541377    1.43591274173614    9.67116036200354
H         7.80048894220622    1.48433644235866    8.60755811491892
C         8.66876578478937    1.21197166451685   10.54439910592774
H         9.67319795786261    1.07706185677004   10.17081124972622
C         8.43640256246827    1.14616367163117   11.90951899287431
H         9.26356333934446    0.94566140284133   12.57543623575568
C         9.01715777884077    3.63672741271435   15.57642291859609
H         9.32614478422607    4.68563552791750   15.46813934520304
C        10.03012040544589    2.73270899250838   14.86909702913530
H        10.05755539931046    2.95114353291570   13.79765251007469
H         9.72048999178199    1.68907537555953   14.99330374309814
C        11.42221850460072    2.91763234733982   15.46688724330217
H        12.12737430021918    2.25213443157892   14.96526433753418
H        11.75452606569735    3.94536162810625   15.29712484357760
C        11.40229528839149    2.62935648127110   16.96433322296381
H        11.13845833885270    1.58276815137095   17.12939111130702
H        12.39453660243269    2.79518199768967   17.38708273337775
C        10.38083665824236    3.52181488238788   17.66122382320581
H        10.67366350353573    4.56934755534484   17.54939107146422
H        10.35352790559949    3.29329702859964   18.72735209256182
C         8.98893156902968    3.30955263247156   17.06865267387112
H         8.27462446306155    3.94409985754416   17.59513913952155
H         8.69856880035768    2.27135757223061   17.22637931531651
C         6.19543168536510    4.43074457266081   15.73719705184914
H         6.31199472295966    3.93616894647455   16.71265160659443
C         6.48851264722728    5.91746741566903   15.92765789250010
H         7.53309770244513    6.07534154518831   16.20561696211840
H         6.29242150829679    6.46495860079768   15.00352588839045
C         5.57532964618133    6.45634643282112   17.02885243614009
H         5.80245072530448    5.94639558386074   17.96737379938424
H         5.76404800811437    7.52237908607015   17.17154348963706
C         4.10809101883251    6.23001025992119   16.67396894205997
H         3.86007568545100    6.80148021637131   15.77567213634763
H         3.47466579025586    6.59325815031177   17.48440109547637
C         3.83050843777741    4.74985383182991   16.42548097896819
H         2.78637915522459    4.60975637606699   16.14137622208285
H         4.00829453326231    4.17972003493435   17.33926816242318
C         4.73901255327689    4.22152105270736   15.31809901246256
H         4.53986337454337    3.15922258817761   15.15182449570985
H         4.51651971624151    4.75192646176859   14.39170436509706
C         7.71064782397480    4.37513460143371   13.07645487326365
H         8.19280305068205    3.59976930444979   12.46187985471559
C         8.63435611750697    5.59418713809505   13.08229541613485
H         9.59941792666215    5.35751180014552   13.53236910519585
H         8.18468056852430    6.41392147914075   13.64470011074059
C         8.87792493575493    6.03899468607326   11.63891271760543
H         9.53229057082464    6.91301584450771   11.63642262088775
H         9.38825008399460    5.23734101068661   11.09913164903404
C         7.56871701251670    6.36698343924812   10.92916168079161
H         7.08816821359398    7.21388030775346   11.42501089215269
H         7.77114817867026    6.65650484139384    9.89682247026675
C         6.63323306434051    5.16279579699355   10.95968312383975
H         7.07834691379977    4.33320452136301   10.40534138257187
H         5.68377007014795    5.41302939597269   10.48276859203880
C         6.38582582511213    4.73397120651952   12.40244949606052
H         5.70863271995728    3.87649176482639   12.42640904988517
H         5.91460077098517    5.56153723589262   12.93581983137740
F         5.32132026873135   -0.89125486628469   13.04012904390898
F         6.12134651137870   -1.59711123762092   14.89964532787864
F         7.42197963397746   -1.36547473293437   13.21922392473943
P         7.39486659529521    3.49128703568756   14.68681691087591
I         6.07550271807367    0.99717192364359   16.91178369933170
Au        6.78106283646258    1.23237036176706   14.38685352330478

