45
CSD_code = VOMFEI | q = 0 | S = 0 | Stoichiometry = C16H26Br2Hf | MND = 10
Hf        4.30394310601372    3.73692983802164    5.30054771693595
Br        5.61438996032694    1.73107275498242    6.13591180604076
Br        3.54979690401092    4.44087003234537    7.62274987512297
C         2.34118828523244    3.19866725609183    4.52518345198980
C         2.27951425665648    1.79931185205740    5.05012830460803
C         2.85659055988084    0.77449065132015    4.39484431081105
C         1.60814190193260    1.59575706255013    6.38929415711106
C         2.85564627802388   -0.63670251814807    4.90470584986137
C         3.62486193679410    1.00957522409742    3.11869693454875
C         4.89967328547269    4.91582997757354    3.25406411552683
C         6.09889382955170    4.29699243559983    3.71503283494100
C         6.45599107867157    4.89874288533322    4.95365414910617
C         5.49890576223910    5.90338395563087    5.25131019106235
C         4.52401798867946    5.90506260281448    4.21747121871616
C         4.29481243967637    4.75640216025003    1.88594634244522
C         6.94154363073616    3.30045409687404    2.96678027839418
C         7.70632139564227    4.62391234846608    5.74239785260657
C         5.60107729664303    6.89945068378681    6.37050485842036
C         3.38496648357573    6.87885504418228    4.10216841236248
H         6.45318058264143    2.98293695960365    2.04754049664141
H         7.89824556159422    3.75002149021923    2.69545097608840
H         7.15630111985150    2.41280697951676    3.56682839104291
H         8.14725161512066    3.67009055245165    5.45841169156243
H         8.44727252723524    5.40559791608743    5.56251854681895
H         7.50592476386144    4.60062233580955    6.81579798345149
H         6.07001861933498    6.46329884572478    7.25213560295984
H         6.21127860326762    7.74938592873416    6.05655971494492
H         4.62301677866706    7.28118622336474    6.65945482593989
H         3.73981014102229    7.83894170400905    3.72159882318958
H         2.61743355630600    6.51506310861153    3.42035311983547
H         2.92133661432686    7.06164708319328    5.07347983906137
H         3.24073330705953    5.03006769141276    1.88073778841686
H         4.80668567378868    5.40977700353386    1.17577459809736
H         4.38392778599798    3.73533659468352    1.51571941081914
H         4.18089678516008    0.11649743388894    2.84629932090422
H         2.95750806647538    1.26007267420294    2.29122132084449
H         4.34439670422122    1.83583545629599    3.23597574472117
H         1.24354798487846    2.53601775058504    6.79897178810146
H         0.75665305698445    0.92232008255610    6.29382733510394
H         2.30087173266805    1.15324545042590    7.10726637720537
H         2.00048380270812   -0.83289630954306    5.54447275569617
H         2.83402028198722   -1.33854058969603    4.07313618779112
H         3.76250332997569   -0.82650178864019    5.48186006408836
H         1.53313608493769    3.80039004873954    4.96686597870804
H         2.20638854022061    3.20542103041410    3.43594865729960

