57
CSD_code = VOMFUZ | q = 0 | S = 0 | Stoichiometry = C20H26Br2N2NiO2S4 | MND = 6
Br        1.54651289850320    3.23170563845194    1.23104786338978
C         7.41073353053407    4.32504054011248    3.61373118562830
C         9.30102920853619    3.71834373606569    2.34780258064872
H         9.96423253448145    4.38220029181284    2.91577959201175
H         8.93541032477909    4.26977962373336    1.47276761552643
C        10.01908461739777    2.44163237652710    1.93660458435975
H        10.78400990360991    2.70099521639800    1.20284107955397
H         9.29818534500020    1.77471130353975    1.46095579295321
C        10.65676562401560    1.73437182408724    3.13050001954090
H         9.88001397509930    1.51087100230308    3.86349855530292
H        11.38062945240936    2.40406790748619    3.60064135659671
C        11.35242094633333    0.44617149800147    2.71119609828094
H        10.64187975462765   -0.24060997814231    2.25728408805489
H        11.79927608584707   -0.04289422113396    3.57291692835205
H        12.13816468133048    0.65409234739707    1.98810751409124
C         4.73915522499710    6.54036842998847    1.40663264945551
H         5.49694872366813    7.30685306972628    1.51414805071764
C         4.09868685142810    6.32679232794033    0.19624870657964
H         4.34725482806677    6.92424517631288   -0.66662467269387
C         3.13530903743959    5.33573685942590    0.11304826166099
H         2.61177351604012    5.13435389144426   -0.80933081884686
C         2.86042074025053    4.60606825277723    1.25894444406190
C         3.54597215714459    4.87912326749794    2.43328424448172
H         3.35101521505901    4.32050257952018    3.34102886863927
N         4.46956162820586    5.82941240876557    2.49835866997253
Ni        5.72055390994603    6.14523874875143    4.47203660376931
O         8.18964645290562    3.36343721222039    3.16610581156702
S         7.64174184952061    5.95352612472079    3.28188480878008
S         6.10240025177991    3.90999712364244    4.57355257469150
Br        9.89429225715105    9.05932346242029    7.71265413404823
C         4.03001903313942    7.96552842639440    5.32947696269451
C         2.14004243850029    8.57234330130427    6.59585239375600
H         1.47670186206270    7.90872192915106    6.02782183449280
H         2.50556451702525    8.02062973536297    7.47075763301092
C         1.42184187790287    9.84891713808228    7.00714032469336
H         0.65692489947698    9.58949103556001    7.74093326310470
H         2.14288259556296   10.51563921868495    7.48283138449916
C         0.78427522390467   10.55633588338665    5.81321958130325
H         1.56097785805626   10.78000720661712    5.08022783385082
H         0.06038268621456    9.88675588362925    5.34293728348111
C         0.08880120907018   11.84457157905074    6.23263407606140
H         0.79932236804564   12.53129997309076    6.68669552754119
H        -0.35803664912083   12.33372435946568    5.37095103381535
H        -0.69697253644586   11.63652383407761    6.95563580933015
C         6.70173436134253    5.75051649609342    7.53730424254791
H         5.94413325281748    4.98384536824298    7.42975495825590
C         7.34230731164766    5.96400562150275    8.74760839655892
H         7.09375837127878    5.36650146764206    9.61045502715602
C         8.30589146503959    6.95490886991539    8.83072059748541
H         8.82927888193512    7.15650162440193    9.75319828912547
C         8.58076313112997    7.68460306236306    7.68482585434350
C         7.89506505372261    7.41166236779641    6.51057239512916
H         8.08996565042833    7.97029510914158    5.60281758262445
N         6.97140375953244    6.46139932481398    6.44558135324468
O         3.25135743552883    8.92719047203130    5.77741048346506
S         3.79911119344201    6.33710951723110    5.66168453484174
S         5.33862122265134    8.38051315316343    4.37000415240579

