69
CSD_code = VOMGAH | q = 0 | S = 0 | Stoichiometry = C25H37AuF4IP | MND = 4
C         3.28307558695002   -0.65908087098692   -0.57928934796641
C         2.26843851733826   -1.58321559500085   -0.37585709983824
H         1.25536008973140   -1.25523571322410   -0.19114855151037
C         2.53695213877160   -2.94204865965505   -0.37861912179345
H         1.75230318269151   -3.66485492517293   -0.22169513309063
C         3.83961490057616   -3.36020220550073   -0.57345634287550
C         4.87505612053219   -2.46088543397941   -0.74448801789373
H         5.88632211960280   -2.81465279165792   -0.86784430481802
C         4.58678882151037   -1.10614293036911   -0.73918850340044
H         5.39807939852685   -0.40175618879079   -0.84869706062280
C         2.87850149414012   -0.30171208555887   -3.71650720457516
H         3.59540946722542   -0.82371943947640   -3.06483069812400
C         1.53943078801514   -1.03143786219853   -3.60289123305763
H         1.14383479012723   -0.93282527808384   -2.58876623330657
H         0.82207668493719   -0.59108884425147   -4.29759029689349
C         1.71394620018366   -2.50521694276237   -3.95561428111039
H         2.40830509985469   -2.96928334060413   -3.25157519082536
H         0.75535197035665   -3.01979973146868   -3.86852742715714
C         2.25378160780200   -2.63866834003901   -5.37570613172345
H         2.40699742586734   -3.69100799254893   -5.61886419465632
H         1.52424359599270   -2.23541337913284   -6.08217921891925
C         3.56934928780889   -1.88043827875263   -5.51491818143237
H         3.93770185585540   -1.95841114062497   -6.53965759171055
H         4.31571892701567   -2.33147855600612   -4.85640592440870
C         3.40466024763344   -0.40393196690105   -5.14926463169631
H         2.71158357128557    0.06827760474937   -5.84721727001855
H         4.37679714231173    0.08095998966386   -5.24881638038980
C         4.22258599094896    2.28644853968305   -3.63456455491598
H         4.22273479043202    2.06577795653264   -4.71099111007979
C         5.48520757679382    1.70214450137234   -2.99566638488628
H         5.48159661246905    1.93685627420178   -1.92533007627642
H         5.50053582165440    0.61356673096379   -3.10266338659975
C         6.73553179413963    2.29889200455294   -3.63605962624607
H         7.62480283279759    1.88861922067680   -3.15390309345029
H         6.76910936363914    2.01858459636515   -4.69228739230817
C         6.72493053572473    3.81890184601838   -3.51223714949023
H         6.76347887207316    4.09813966057267   -2.45738884103707
H         7.60625439198942    4.23652563447585   -4.00152739360957
C         5.45807314887855    4.39195156399599   -4.13861854269136
H         5.44380490542734    4.16489944427641   -5.20804591244990
H         5.44555772533282    5.47667136236572   -4.02593889396917
C         4.21574773054875    3.80549553197338   -3.47025904310385
H         3.32470916135248    4.24399976995852   -3.92172386371727
H         4.22825553905519    4.07638506335877   -2.41505917118694
C         1.28442618534179    2.31129482788356   -3.56917915626406
H         1.49459040018717    3.33532476619301   -3.22707524959033
C         1.11803338208156    2.34937101109022   -5.08714529123057
H         2.05511763937611    2.62897182263616   -5.57403292339149
H         0.81546644609427    1.36931059262982   -5.46128636863547
C         0.03338047922031    3.37005706300090   -5.43196809263131
H        -0.10674114133072    3.40302469137303   -6.51430582609112
H         0.35339005498086    4.36130341966689   -5.10421647956050
C        -1.28291019414048    3.01270971331322   -4.74670571690371
H        -2.03518827836946    3.76682943071957   -4.98156842675663
H        -1.64216984825329    2.05368423011645   -5.12897783847053
C        -1.10021515157911    2.91885857253490   -3.23431148700854
H        -2.04147217966724    2.63286391415238   -2.76251210508131
H        -0.80686598506825    3.89123570648792   -2.83423493075041
C        -0.02377717118780    1.89004623478384   -2.89688912271412
H        -0.34733146695946    0.90928373698968   -3.24662692562374
H         0.10650891877885    1.83277202639091   -1.81262770718958
F         2.14473576946936    0.14728018673372    1.99158913365322
F         4.27692087839270    0.45517957373402    1.80963195232502
F         2.98722727863377    2.09936051966337    2.26143621124615
F         4.10885589513761   -4.68110374817141   -0.59612140619608
C         3.07350798636156    1.00109172630282    1.48682473316567
P         2.75728407020566    1.38712149154775   -2.93622809101228
I         2.13255388774729    3.82487266186847   -0.38433407667564
Au        2.84597431864788    1.30716702535674   -0.57785479877937

