57
CSD_code = VOMGEK | q = 0 | S = 0 | Stoichiometry = C20H26Cl2N2NiO2S4 | MND = 6
Ni        4.24258454652181    6.07321931432143    5.85419911975821
S         5.50544725621861    5.90168097867804    3.97654237793523
S         4.12616044655048    3.84735359095957    5.42312181302199
N         2.31988208530754    6.43825215857925    4.53815016685827
C         2.29253722456765    7.41499220682103    3.63990567743823
H         3.20864244994973    7.97536259219300    3.49823962637026
C         1.14812099594560    7.71548188312412    2.91208695445634
Cl        1.17130446675429    8.99823303082823    1.75892086124128
C        -0.00774405616786    6.97762153775341    3.12218157844522
H        -0.90747305586587    7.19712110948603    2.56834915721673
C         0.03514851886960    5.95880952232848    4.05890900365548
H        -0.83803094384690    5.35659181651713    4.25477700734915
C         1.21694157135130    5.72305543712820    4.74258923554400
H         1.29077442296144    4.93506306654895    5.48219553788895
C         5.15334243061445    4.27340269261518    4.17100509755916
O         5.63415387109935    3.31720013702993    3.40401158801791
C         6.51514524607538    3.67788879468580    2.34422597900816
H         7.37246388895956    4.21809646550509    2.76439878656654
H         5.99008592139912    4.35362273417654    1.65803584002221
C         6.95727366042968    2.40548000239829    1.63643816677137
H         7.38191565056082    1.72576897138127    2.37700602140878
H         7.73836302874669    2.66539931507285    0.91997125619465
C         5.79690637467611    1.71783749455924    0.91988215205974
H         5.38293460564646    2.39688712177999    0.17100649064949
H         5.01275298418446    1.50064226668833    1.64667326819453
C         6.24218670539640    0.42713385429330    0.24528198736308
H         5.40701780920929   -0.04259150621471   -0.26779137861426
H         6.63002949249695   -0.27273248470354    0.98138789546109
H         7.02476809618468    0.62724902449746   -0.48323619848266
S         2.98007776319501    6.24574579706786    7.73163651859978
S         4.35940954823213    8.29942489964254    6.28438152575130
N         6.16586016001587    5.70881843893060    7.16948818399015
C         6.19321818677036    4.73211608127551    8.06773896296263
H         5.27708752769021    4.17187013427240    8.20955154467602
C         7.33758059392572    4.43167813336459    8.79558165236343
Cl        7.31442160812421    3.14884749580723    9.94864397589233
C         8.49341628007939    5.16956052793548    8.58553498588669
H         9.39310572050172    4.95022022328192    9.13958816147263
C         8.45050811494519    6.18843230167033    7.64888306454409
H         9.32372313516468    6.79053864242364    7.45289122595168
C         7.26875670270910    6.42411214811668    6.96513046488460
H         7.19489403074569    7.21219982676801    6.22561104822107
C         3.33255950362105    7.87387142657649    7.53691666685725
O         2.85199766042422    8.83019015262921    8.30392409050010
C         1.97057326629353    8.46936933133394    9.36335202222801
H         1.11325034493067    7.92939823989515    8.94280648321815
H         2.49516128290244    7.79344671359884   10.04973850735962
C         1.52859045818702    9.74166516855484   10.07138653299173
H         1.10382908072405   10.42150431101438    9.33102376038623
H         0.74761801715174    9.48158316664710   10.78790402009519
C         2.68880066432375   10.42943804010630   10.78797020530271
H         3.10274587406765    9.75029652772050   11.53676036308399
H         3.47291389055165   10.64655766751769   10.06114531379416
C         2.24373975794377   11.72019508596029   11.46263487173419
H         3.07888162613043   12.18990292758577   11.97579238473288
H         1.85592502783986   12.42007165535698   10.72654290518892
H         1.46111847800270   11.52002180591485   12.19107548796115

