63
CSD_code = VOMGEJ | q = 1 | S = 0 | Stoichiometry = C28H28N4O2V(1+) | MND = 6
V        -0.84192099010021    3.05048103859793    2.66647987140584
O         0.02133279687540    2.51204638778122    1.38615663378135
O        -1.42735321209787    4.41590109672075    3.35014478552446
N        -0.25844359256633    0.73819791698253    3.30481839429944
N         1.00193050634682    3.28184733754187    3.57572220529409
N        -2.49340334404426    2.20621715826547    4.29608063560304
N        -2.60587343503147    3.06380615233983    1.57928180582864
C         1.10853812784226    1.91696884849028    0.99373519124196
C         2.12252976286450    2.56559743532595    0.28004420055169
C         3.28803899594952    1.89131270721426   -0.02614537741525
C         3.46019624445615    0.57140089462057    0.36072471248678
C         2.45959276774941   -0.08142698759446    1.06404650981868
C         1.28636543899207    0.57447822716119    1.38681261195648
C         0.15325370421097   -0.06177838062183    2.13889915552809
C         0.89967992939761    0.94361285094722    4.17953659913637
C         1.69682621940422    2.16960391747846    3.81952991174943
C         3.08805366044688    2.16077705130411    3.84334422698370
C         3.77497805159654    3.33863935871534    3.61118771906979
C         3.04419325037743    4.49720707826668    3.38138495631616
C         1.66396797430018    4.41657998797882    3.36749638508769
C        -1.33092520888716    0.04541004563932    4.01038606071608
C        -2.06999317765155    0.98186729190532    4.96666308048311
C        -2.82723146321878    3.22424607616050    5.30644369429789
C        -3.31571984032786    4.50051564497297    4.68448766906580
C        -4.50014841852314    5.12177651693012    5.03369595366991
C        -4.88368549715267    6.30274763936142    4.41716861934056
C        -4.07657533704011    6.87067719829300    3.44372820972949
C        -2.88593959419666    6.27174270155820    3.08258198816167
C        -2.49204136125950    5.07704050720370    3.69571549792067
C        -3.66696271549656    1.96370334771979    3.45159977040963
C        -3.73673012220372    2.88736074075727    2.26408213898058
C        -4.94306973480736    3.44266784114388    1.84875160888494
C        -4.97485025784014    4.19940205830368    0.69140607389340
C        -3.79770131393848    4.36027717005764   -0.02787860732819
C        -2.64125298421863    3.77918143752457    0.45862979929652
H         1.97447987784965    3.59609871645706   -0.01362356100885
H         4.06796258387917    2.39755522598937   -0.57371992009480
H         4.37084688256504    0.04987027658244    0.11315545972625
H         2.59375361676141   -1.11190818234584    1.36032374033078
H         0.44651455047916   -1.07370866316251    2.46101260762658
H        -0.71266386628598   -0.14345716456278    1.46975018262358
H         1.55252113310391    0.05795470371832    4.17451299529514
H         0.54917793260187    1.09626735918507    5.20587472878259
H         3.61993961374689    1.24199780758157    4.03495410759663
H         4.85349197101189    3.35566999466281    3.61247404326504
H         3.53786885412496    5.43972472802883    3.20764174768080
H         1.05113512430423    5.29309419240250    3.18268234745407
H        -2.02629497156965   -0.34284990277689    3.26168895737480
H        -0.94539762592565   -0.81531938133276    4.57998206808308
H        -1.41075435962941    1.26399257540222    5.79167281994098
H        -2.92880039257503    0.44478349266279    5.40022101215258
H        -1.91455546292013    3.43665677387952    5.87762288790038
H        -3.59222205803982    2.83381639603693    5.99649504851561
H        -5.12847882437435    4.68280479018982    5.79543065459653
H        -5.80909417960126    6.77944062444962    4.69803645263584
H        -4.37692273342667    7.78998016950984    2.96506077664595
H        -2.24664160018768    6.70259405515331    2.32378591881202
H        -4.59253750068881    2.04157171147672    4.04121589943971
H        -3.61133524976025    0.94763164374990    3.04689276370978
H        -5.83885293167036    3.28696271310012    2.42936195052838
H        -5.89501649371221    4.65010703963595    0.35451072169578
H        -3.77866435546653    4.93237660843078   -0.94142672048769
H        -1.69551536480095    3.88530540084832   -0.06323238259248

