109
CSD_code = VOMGIO | q = 0 | S = 0 | Stoichiometry = C32H66O8PtSi2 | MND = 6
Pt       -3.90267102964281    0.67517017862494   -8.64528577444460
Si       -6.58998895457528    2.38773499853799   -7.72541049927258
O        -6.94303291165192    3.89725406193759   -7.21418304922192
O        -5.02060841551976    2.14765553548627   -7.81106736703634
C        -4.75908277405168   -0.70867702064769   -7.26921750401813
H        -5.26472248352246   -0.12812266265239   -6.49919334006457
C        -5.42039226144688   -0.83628516947140   -8.48274575924492
H        -6.36765619880040   -0.31312625032663   -8.57566216311833
O        -7.44101614417639    2.16490116845096   -9.10933525584797
O        -7.16607570335882    1.23455696614060   -6.70648910124141
C        -5.19540318380967   -1.97231670064214   -9.45769960693587
H        -4.91726405971624   -2.86941024142117   -8.90321790926892
H        -6.13489277030828   -2.19054417347185   -9.96774104356316
C        -7.15727328680186    2.61380057729775  -10.42152629882936
C        -8.49164982437932    0.90606804655089   -6.34021424136710
C        -6.21217067500522    4.74107925848973   -6.34606143209228
C        -3.67891401811956   -1.63932947752602   -6.77004145976986
H        -4.14038961650490   -2.56194066175840   -6.40396945261828
H        -3.19444650852001   -1.16154433166606   -5.91718997724770
C        -9.32576359062866    2.16424660239507   -6.10806381905278
H        -9.36333233023577    2.74257143231922   -7.02533591650101
H        -8.86134286965999    2.77704271396020   -5.34080478943689
H       -10.33368994912984    1.90154124889671   -5.79657932786115
C        -5.71881539136636    3.96219242225891   -5.12666003716737
H        -5.03620430101961    3.18634880794655   -5.45934102904962
H        -6.55848393160623    3.48846944730447   -4.62500548092272
H        -5.21088954355889    4.62447716416551   -4.43024775825414
C        -9.12702557971440    0.06465468794094   -7.45194265544268
H        -9.07055765423528    0.62293471622133   -8.38119210058114
H       -10.16599882122164   -0.15244941306264   -7.21878334241343
H        -8.58650302131029   -0.87237361106622   -7.56827318677864
C        -6.16198107718048    1.64460007862117  -11.07089949369086
H        -6.59154607472766    0.64612237102806  -11.11309780725664
H        -5.24437535744598    1.62139024610760  -10.47299375363867
H        -5.91726385953242    1.97153911578045  -12.07810656294644
C        -8.39530716422579    0.08883441089119   -5.04608813118312
H        -7.79097549434770   -0.79973181035402   -5.21228287882888
H        -9.38551899716419   -0.21152950067932   -4.71426197066528
H        -7.92447294274255    0.68414109967868   -4.26812986071328
C        -7.17039479905338    5.85719454616993   -5.91678485193315
H        -7.54842383954492    6.37442630683767   -6.79455644559746
H        -6.65709832775728    6.57000373687113   -5.27697632803491
H        -8.01475932966220    5.43602482838726   -5.37713153656746
C        -5.01552869001617    5.31942846393134   -7.10371268504823
H        -5.35620058784523    5.92192358096248   -7.94160764616143
H        -4.42681133831323    4.49175443898806   -7.48742894114003
H        -4.40217817788657    5.93111748828636   -6.44762324624486
C        -6.56897384860977    4.02138679260333  -10.40983160752132
H        -7.22060153668044    4.68272569691172   -9.84632377666323
H        -6.45458238464031    4.39688444198833  -11.42361067836687
H        -5.60007957561656    3.99762937906325   -9.92188354477525
C        -8.48838301283112    2.59807319259897  -11.18328220520666
H        -8.91949656556709    1.59994557012602  -11.16020418078994
H        -8.33792076781862    2.89606295977272  -12.21745015270148
H        -9.18684257513666    3.28478096965224  -10.71272308071892
Si       -1.21501504470086    2.38770540866703   -9.56425063955096
O        -0.86194400028565    3.89723982028452  -10.07543469533700
O        -2.78442139786846    2.14757760755739   -9.47917971212369
C        -3.04636281525817   -0.70856555927157  -10.02145212461440
H        -2.54064480599762   -0.12789015246395  -10.79133271555388
C        -2.38512445433536   -0.83647918757641   -8.80790915390638
H        -1.43777553989184   -0.31349187936548   -8.71489046946052
O        -0.36444382087520    2.16504287144371   -8.18002917649131
O        -0.63850997450596    1.23450033008709  -10.58290217275346
C        -2.61027274497801   -1.97269771791256   -7.83321166349710
H        -2.88854134614300   -2.86963098345177   -8.38788776024360
H        -1.67081994406762   -2.19117240444038   -7.32320791901000
C        -0.64882495098232    2.61376138519322   -6.86791465048808
C         0.68724360002449    0.90596871667089  -10.94850777362602
C        -1.59248714864558    4.74076884442132  -10.94411120818973
C        -4.12671832590560   -1.63889240470669  -10.52081450482111
H        -3.66539429472617   -2.56149888161671  -10.88708486864028
H        -4.61110084395458   -1.16083861774993  -11.37356624501915
C         1.52159730888682    2.16411023689791  -11.17998426490316
H         1.55872260988257    2.74225778379645  -10.26258265835139
H         1.05763354701955    2.77708904387471  -11.94737091879612
H         2.52966959389434    1.90138280538978  -11.49098203685197
C        -2.08443682615882    3.96170224109848  -12.16396895755337
H        -2.76691438500645    3.18547195188025  -11.83191162375898
H        -1.24411371899217    3.48845966300335  -12.66497796852804
H        -2.59213878293141    4.62376959218551  -12.86075059995993
C         1.32196949547363    0.06433352981554   -9.83657246397329
H         1.26499110756655    0.62246016124287   -8.90726205414993
H         2.36107146709075   -0.15276720038931  -10.06916862889077
H         0.78135290921155   -0.87269878553754   -9.72071622973254
C        -1.64368537399389    1.64390755125465   -6.21886620114502
H        -1.21360185987594    0.64564543263206   -6.17680582390302
H        -2.56118731885377    1.62034642578711   -6.81693841248972
H        -1.88873633113300    1.97052440102268   -5.21163542410916
C         0.59157285191249    0.08894332395104  -12.24281241196118
H        -0.01296755402377   -0.79957010137014  -12.07709849156670
H         1.58193955970219   -0.21149464764994  -12.57411447722019
H         0.12125856291553    0.68442497052195  -13.02094992023271
C        -0.63442703921253    5.85735978200962  -11.37251145943206
H        -0.25744053463272    6.37476614598352  -10.49439415209827
H        -1.14750662254068    6.56992192156073  -12.01276747819075
H         0.21062668564692    5.43661194201214  -11.91141655696254
C        -2.79006733010280    5.31848100865936  -10.18745442696265
H        -2.45040448200401    5.92104660254167   -9.34920205469351
H        -3.37874243691348    4.49049645973660   -9.80433515110803
H        -3.40311212814529    5.92996091865897  -10.84402352927668
C        -1.23805752105472    4.02095087492274   -6.87978148158813
H        -0.58667745044404    4.68274225166013   -7.44304302401295
H        -1.35306771220878    4.39634231990954   -5.86603467030754
H        -2.20676409368843    3.99653810591901   -7.36807391624800
C         0.68207866196844    2.59888922277351   -6.10578391119275
H         1.11382327744662    1.60103291532240   -6.12869769133896
H         0.53113883323925    2.89683114952172   -5.07167202329644
H         1.38023501135392    3.28601407803996   -6.57617940674849

