66
CSD_code = VOMGIP | q = 0 | S = 0 | Stoichiometry = C24H37AuCl2FP | MND = 4
C         0.91960064924785   10.15951042310206   -0.07510945701306
C        -0.03661274717766    9.34543911274035   -0.66142123854679
H        -1.04216234739211    9.31392907628514   -0.26925330641400
C         0.27569021571263    8.57117031975902   -1.76770981284258
H        -0.46282167761080    7.93596830481542   -2.23112329108181
C         1.55685021783147    8.63452371162072   -2.28157940870401
C         2.51997441071839    9.46076291053933   -1.73372630326771
H         3.50495774297536    9.50705480048031   -2.17028226855447
C         2.18776768005711   10.22936018423605   -0.63026327729663
H         2.92739525766336   10.89886032034245   -0.21719472529107
C        -0.94941073274996    9.11442751783328    3.79901411820346
H        -0.79646203426753    8.13834484603213    4.28057927951364
C        -1.51667840930248   10.07727622610231    4.84094638050142
H        -0.84785948434412   10.14410479331819    5.70066899687939
H        -1.61317136023421   11.07477122107798    4.41223702448465
C        -2.88288879999616    9.58235898798311    5.31268103705418
H        -2.77326015754190    8.61007272925358    5.80180776801217
H        -3.28210533577006   10.28296791514809    6.04728743160757
C        -3.84798301310777    9.45218936436664    4.13998323844899
H        -3.98845958074418   10.43104956025276    3.67797602037710
H        -4.82003138496781    9.10201251378736    4.49152991374337
C        -3.28704207451806    8.48106776498310    3.10748767235241
H        -3.96675820101767    8.40002812868763    2.25729448023772
H        -3.18961783557387    7.48790274181721    3.55412370716033
C        -1.92027862275716    8.95814822050336    2.62526693864406
H        -1.51737953051485    8.25056493525881    1.89424382889965
H        -2.02987188258499    9.93082804021348    2.13384996937905
C         1.71856960020579   10.16295672472416    4.51630529087644
H         1.06156943932802   10.91520558385444    4.97608319526891
C         2.98457200182504   10.90324070051382    4.08402507077733
H         3.70683138830983   10.22290188671704    3.63106245429565
H         2.72512753572970   11.66873774270416    3.34750902845520
C         3.61366357392664   11.55804419298190    5.31178167833535
H         2.91815192956574   12.29330868728696    5.72003957593648
H         4.52504355795993   12.08321151335874    5.02104721034259
C         3.93406373372054   10.50717190920087    6.37156085344813
H         4.67815422332576    9.80978202444667    5.97833851059612
H         4.36276337794632   10.98888852989696    7.25170593136877
C         2.67734178921368    9.73702582734813    6.76793547285342
H         1.96008834549018   10.42422898225062    7.22124668874409
H         2.92535405627442    8.97324647713224    7.50801163153209
C         2.04236786091192    9.07940194287072    5.54326152575378
H         1.13744042599004    8.54156152701872    5.83623995437167
H         2.74760119408173    8.35956669409658    5.12258648505026
C         1.33867605715766    8.04201463798584    2.31495274836234
H         0.80934811905772    8.01609999856839    1.35026393033800
C         2.83043746294911    8.18721789340957    2.01452815586505
H         3.02056571844318    9.15268399971946    1.53924905324507
H         3.39916245196775    8.13987600951121    2.94488996118977
C         3.29055607711612    7.05307780841665    1.10361113608071
H         2.74992087232096    7.10615105624555    0.15617930918213
H         4.35479091162008    7.16201499267423    0.88808387536368
C         3.02725774267754    5.70910531936265    1.77543783453134
H         3.62389160202372    5.63562542111881    2.68777023648922
H         3.32876099215003    4.89603283085656    1.11356032444995
C         1.54888344928576    5.56885006599390    2.12255603523532
H         1.37404367354045    4.61660694751442    2.62701484078857
H         0.96182732888118    5.57242582767081    1.20118783056885
C         1.07527533554274    6.71237076241670    3.02208600061840
H         1.60728812985942    6.67183125402476    3.97358282746183
H         0.01084813447262    6.57567373037198    3.21781449864577
F         1.87483207056092    7.86979479882120   -3.34630001581512
P         0.68922612806298    9.60531722447899    3.09195013482592
Cl        0.21016282078472   12.91763263744108   -0.07260794365009
Cl       -0.02002109869726   12.63384795025746    3.32757065329523
Au        0.46918102454351   11.28517321676232    1.50756329875342

