82
CSD_code = VOMJOX | q = 0 | S = 0 | Stoichiometry = C25H52OP3Rh | MND = 4
Rh       12.87261318288689    3.04819544550736   12.33531397796389
P        13.34494408132550    4.98780108552446   13.46608034189509
P        13.69235698083168    1.54369646555461   13.86862130477928
P        12.41493904565017    1.58550158496755   10.62408497533759
O        10.17177552350144    3.67913731935318   12.40314680018416
C        11.97941515640352    4.38455171864084   11.11551382550980
C        10.60163027601191    4.49192414830134   11.36893680164081
C         9.77498347331556    5.32577074436049   10.63755951789192
H         8.71678100876389    5.40145929700904   10.84358585849465
C        10.31805206624377    6.08463648392931    9.60811554750243
H         9.67745942427575    6.74017512322663    9.03496135969456
C        11.66359727065670    5.99099536950953    9.32037927054300
H        12.08637276593213    6.57385717574797    8.51270654515153
C        12.47766328731541    5.14689112913421   10.06592297728270
H        13.52659447590173    5.08222549292184    9.80334635720437
C         8.81946496999778    3.74111780956663   12.77061624529113
H         8.69061885457640    3.05717877516407   13.61002281452160
H         8.16240235458585    3.42525261633755   11.95146930098512
H         8.53412452703344    4.75076129092581   13.08789784708022
C        11.90852589404497    6.03715294231447   13.98348592296469
H        12.26965302406208    7.01334452356075   14.31685456554169
H        11.30099446936214    6.19493211042021   13.08973067506265
C        11.07802602988021    5.35818024309567   15.06450602882949
H        10.15708698491260    5.91005599470315   15.25029251250976
H        11.62748068719248    5.29271938711249   16.00175091837528
H        10.82392002478782    4.35008457996891   14.74577076954031
C        14.26460963027195    6.26049255319673   12.48162902002777
H        13.58664327672918    6.59278386660516   11.69301800558528
H        14.50478078363731    7.12374920335642   13.10530388318201
C        15.52495234371916    5.66720293918185   11.86768285081699
H        15.95575183441664    6.34150021585909   11.12909526679081
H        15.27621930979410    4.72349237765314   11.37888277929221
H        16.27774630248639    5.47339159989393   12.62976015299474
C        14.35636386334653    5.03982960910692   15.03883511803200
H        13.91617468337883    4.30026461662218   15.71219641909840
H        15.34773350743444    4.67462618692285   14.76032241041326
C        14.50590528504525    6.35865179794803   15.78827233455572
H        15.16733771621486    6.21271053354834   16.64237977839413
H        13.55212543192472    6.71737439043551   16.16555685710813
H        14.94311074851893    7.13226231221306   15.16242291096316
C        15.34155886194202    1.74810138863964   14.71531488230186
H        15.25169278955134    2.52673025840691   15.47220746780375
H        15.61382766924553    0.82187079140729   15.22513919984442
C        16.41460342697847    2.12465332336795   13.70319445817407
H        17.35776551390773    2.35676867621168   14.19651235571676
H        16.09120048743682    2.99531526073257   13.13364565402277
H        16.58798471850735    1.30970021700976   13.00303585284876
C        12.57915826644846    1.50561023778351   15.35138877402893
H        12.91308726119655    0.78009521974881   16.09550354268267
H        12.62211873626310    2.50039145765715   15.80173418250240
C        11.15670560724478    1.23306215682374   14.88148175653678
H        10.43472223746113    1.39319795444216   15.68169946062899
H        11.05209713491240    0.21073976802145   14.52262571160833
H        10.93248390026658    1.90914603406363   14.05311315224412
C        13.87111654628152   -0.28585191038912   13.51686798300100
H        13.07240522924089   -0.56384417290093   12.82945541999689
H        14.81344626797682   -0.37523778333287   12.96679306498427
C        13.87127112245515   -1.26499278917239   14.68481311485267
H        14.12733064906656   -2.26016032193443   14.32166423719418
H        12.89057947964155   -1.32384191370222   15.14994510718058
H        14.59805656502892   -0.99443190846386   15.44748278456124
C        11.80499531121819    2.26850281318382    9.00289045968564
H        10.93465220778392    2.88733763911733    9.23184550659313
H        12.58682869366778    2.95400910162156    8.66624328923424
C        11.45496932029899    1.30255331535915    7.87689999529559
H        11.22614715585447    1.87486643501842    6.97863275421817
H        10.58069409984842    0.70309737436921    8.11700109622421
H        12.27866636874842    0.63300277882147    7.64003035806369
C        13.93392241203645    0.69418764772081   10.03548649297933
H        14.17114014234492   -0.08304337607860   10.76314616668921
H        13.75601805832081    0.20997350995694    9.07346531375841
C        15.08631393688198    1.68484463118479    9.94475056647233
H        16.03734209206096    1.17870886190290    9.78502192052017
H        15.13551615760142    2.25230564759807   10.87903228371372
H        14.92872027337067    2.38610053632764    9.12804197365686
C        11.24855123868661    0.14453093820908   10.79176148277240
H        11.31235175705646   -0.47779388623613    9.89589407904310
H        11.57499583725921   -0.46231772692784   11.63796733041146
C         9.82124903266690    0.60763472403607   11.04445488287190
H         9.16524720249203   -0.24231185701816   11.23159282180796
H         9.43151138007717    1.16115176638307   10.19312016833385
H         9.80252429428725    1.26100612160941   11.91237204588232

