51
CSD_code = VOMLAM | q = 0 | S = 0 | Stoichiometry = C12H33CoNP3S | MND = 6
C         4.32918483003498    1.89285820354830   16.09164916977736
H         3.45713983894862    2.37215087128688   15.65052775784822
H         4.31109397307849    2.05968358587284   17.16921563444052
H         4.24116478029179    0.81615888355734   15.94507438294383
C         6.96302894657724    1.40541582778506   16.46596646762706
H         7.48520085612444    1.96965627824392   17.24125344874305
H         7.71734429320714    0.83977343779307   15.91368536068774
H         6.34831605820661    0.66822013961678   16.98056649807786
C         9.28891871936535    3.89834800858408   15.78754075808800
H         9.51290870724187    3.07780123386310   16.46623567437146
H         8.86491852537884    4.71523450169388   16.36424757175343
H        10.20962185288248    4.23209164319765   15.30914480604551
C         9.25944695353609    2.04076108835497   13.79402666020492
H         8.81122769133961    1.51700921612204   12.95457736622661
H         9.51134023577667    1.31130989244243   14.56109485636385
H        10.17077315071286    2.53771149427749   13.46183617266471
C         8.25699387337943    4.61013858849391   13.25087485591542
H         9.30402559160318    4.83791242317254   13.05107524009300
H         7.74408380730098    5.50503538674685   13.59446222792250
H         7.76955533434714    4.28627651592168   12.33362141390141
C         6.23809524877693   -0.48836071627998   13.61206769929515
H         5.89770364876308   -0.96164341535264   14.53058091000922
H         7.32558748274779   -0.47776119616405   13.61270430814574
H         5.87691855313212   -1.05254324680531   12.75313422333499
C         6.10148769429494    1.76128938233968   11.88555040237053
H         5.87489985139353    0.96914120044025   11.17163985002907
H         7.16014463779100    1.99756307299463   11.83610937678835
H         5.53486943765648    2.65462105430715   11.62953627549131
C         3.83617968775632    0.90681077076803   13.17623852927297
H         3.77413615253738    0.37081293422792   12.22910506215870
H         3.32332972367587    1.86211832020308   13.08803279354198
H         3.36409711725048    0.31842205637927   13.95797424248446
C         6.27978046468011    6.03155115659815   16.08077094209578
H         6.04954833853942    6.77070878637857   16.84834627076357
H         5.75240768990047    6.28724860981574   15.16352192612406
H         7.34800421872472    6.04125372367585   15.88461046852155
C         3.95383225692098    4.85911908189037   16.94021791073522
H         3.44338349803038    4.10773855536334   17.53600163703976
H         3.44994853892084    4.95963822293054   15.98146935987379
H         3.93334089301453    5.81473325378781   17.46422253679609
C         6.31811248858377    4.35051665363202   18.36120997307197
H         5.98799740419859    5.23903617125117   18.89790683790698
H         7.40484213841634    4.30412351055149   18.36714791107677
H         5.93151392086167    3.46145628825933   18.85508913217626
C         4.85539529792377    4.67877406852401   13.24250732952157
Co        5.98051195536564    2.64011923267098   15.25041159300719
N         5.08268082979911    3.85359758027933   14.04805726435849
P         8.10462541623759    3.28703402221568   14.51480534442817
P         5.59480044848779    1.23316317852330   13.57087139875522
P         5.69425531615999    4.37789139664885   16.63041753849111
S         4.52138163010426    5.79027906934860   12.15956462863607

