53
CSD_code = VOMPAP | q = 1 | S = 0 | Stoichiometry = C22H16AuF10N4(1+) | MND = 4
Au        0.48507368293280    8.06875081037271    9.65897902321550
C         1.63516412558591    6.62215089008275    8.95013435844493
C         1.26465087341636    5.29041856848560    8.86665335663242
C         2.12135956155979    4.31508740003943    8.36054236238111
C         3.39422122381251    4.67923964190619    7.92487373738818
C         3.79157403697208    6.01378665409446    7.99682516509294
C         2.90654822021068    6.95456485338045    8.51041262892301
F         0.04221712733513    4.93344015454681    9.27902419674241
F         1.72655931557110    3.05001810296931    8.29254707108219
F         4.21927302380733    3.76463246492726    7.43832361833690
F         4.99398100332475    6.38429899614400    7.57253411943253
F         3.27774970594773    8.24761982713519    8.56863120653600
C         0.52594527759914    7.11414944951322   11.39099934183383
C        -0.62112005568598    6.47987978245275   11.84109966206988
C        -0.65701595896223    5.77594937802009   13.04084094255833
C         0.49766383586902    5.69894078335277   13.81926534599636
C         1.66326848701226    6.33408415395996   13.39313706012535
C         1.65574547080436    7.02796987117965   12.18647321894744
F        -1.73061361042911    6.57616034994166   11.09548929224980
F        -1.77814848319139    5.19373052945931   13.44533675179712
F         0.48422066356864    5.03606156222813   14.96589182465078
F         2.76557172003934    6.28479460659045   14.13182766045242
F         2.76940192323355    7.65992155364658   11.77904293116575
N         0.44944404438979    8.92835842020697    7.78788938344774
N         1.24274063050156    9.94508714041691    7.38788116669766
H         1.89916532024260   10.37684225711481    8.02060331422527
C         1.10736438120977   10.18129027727493    6.07170031754527
C         1.85682847971487   11.24447999812456    5.37091358091648
H         1.32678554883600   12.19395223511769    5.44675227157390
H         1.95363478085103   10.99904010311612    4.31739437938021
H         2.84692907310675   11.37048106783197    5.80237425381036
C         0.16702894733863    9.27730192138630    5.60910466357598
H        -0.19429171518606    9.17929283434382    4.60708332349767
C        -0.21266169566559    8.50281493670874    6.70710809076825
C        -1.16805133524182    7.37262677340741    6.74063031859745
H        -1.30752685840394    6.99907526566466    7.75207512720509
H        -0.79779854591152    6.56085668279508    6.11548893835642
H        -2.13133852272444    7.67814513330664    6.33591286540229
N        -0.56784799883633    9.59862211997760   10.55467569020393
N        -0.05770496573474   10.31458222680354   11.58403029416405
H         0.90538738541000   10.21244812834433   11.86801517828280
C        -0.98305308679127   11.12735157343112   12.12154836718247
C        -0.69182598374241   12.03678722502415   13.24882688948736
H         0.21523173463223   11.73958121018880   13.76868247452101
H        -1.52249133992274   12.03991074794947   13.95026068540970
H        -0.56519073364546   13.05676701900504   12.88633525746515
C        -2.14689766275959   10.91772484092644   11.40162514122405
H        -3.09164733791150   11.39519069972017   11.55528110503557
C        -1.85244827534299    9.95320797312395   10.43776850232040
C        -2.75443130298850    9.36535104628380    9.42384438200603
H        -2.34327385531174    9.49178642426051    8.42474889683028
H        -3.72544415248115    9.84876327437296    9.47199857315129
H        -2.88660612764011    8.30053005928866    9.60836169175707

