52
CSD_code = VOMPUK | q = 0 | S = 0 | Stoichiometry = C20H18HgN4O7S2 | MND = 4
Hg        2.52891335775210   10.22019653804238   -0.55869317540902
S         1.45340290417896    8.49935026473071    1.32669550493355
S         4.88894543032552   11.17716843022001    1.11571476094863
N         1.40516157771244   10.12811911115035    1.21480835144398
N         3.85106153425023   11.66154701769303   -0.07453564322994
N         0.73999517684112    9.97604170217140   -1.75424125013314
N        -0.23432523173997   11.91931167586446   -0.95828079495806
H         0.68645324482483   12.32582792435587   -0.79058414242953
H        -1.02037685376772   12.37220222320363   -0.52514780931023
O         2.01285437434887   11.90954525977095    2.49347584756472
O         0.16354144379063    7.90208214988044    1.13488683133613
O         2.45593218519322    8.05264843324281    0.36005491943303
O         2.33010824080811   13.29688420920972   -0.41726239934566
O         6.21183019487198   10.97248894732604    0.59253248591662
O         4.31307932915292   10.02297717584422    1.76822504588878
C         1.85594771313086   10.70863425992905    2.34951989514802
C         2.14952794561514    9.71461501838326    3.42645339496813
C         2.01205476052194    8.40241273019479    3.01350300355129
C         2.28764438165219    7.33977664587685    3.84113523623088
H         2.17269175706616    6.32467820019577    3.49510278889852
C         2.72401218766490    7.62520407877121    5.13010027617460
H         2.95493051015112    6.81420444756158    5.80456729219946
C         2.87344120478928    8.93776426491996    5.55541095036536
H         3.21968634755960    9.13339324336364    6.55972981121062
C         2.58956661346967    9.99859230497496    4.70808493723486
H         2.70562985135558   11.02591156281699    5.01793473671924
C         3.27654375445960   12.84914868472680    0.21393530108256
C         3.91280377908998   13.51398750965964    1.38135834154678
C         4.79757120820768   12.68848706786449    2.05584639040355
C         5.43607526000403   13.08553289927946    3.20594939619192
H         6.11681110216991   12.42179690906731    3.71562707454942
C         5.16536765944112   14.36212049192037    3.68727351283014
H         5.64674651999411   14.70180128826245    4.59231127256159
C         4.27957071794681   15.19764975156553    3.02287763029284
H         4.08096740446156   16.18258916617968    3.41902935710982
C         3.63835492646775   14.78204006574408    1.86525729330818
H         2.93591323244913   15.41382933008331    1.34509126596667
C         0.59542936929541    8.75692741639902   -2.30524204801773
H         1.51635992917279    8.26721654501503   -2.59541438179600
C        -0.62085595428069    8.15598758288027   -2.50291664292681
H        -0.68035061862051    7.17618442323753   -2.94582455810888
C        -1.77186712762114    8.83222931024424   -2.09076223681962
H        -2.74319899735047    8.37432395450476   -2.20099563725780
C        -1.65024256721349   10.08532256531642   -1.55400978292058
H        -2.51469654056864   10.64500015045605   -1.23225499139194
C        -0.36954737686496   10.66024630306939   -1.39836436588708
C         5.48625937233477    9.28119593459790   -2.12540623681897
H         6.07262341464776    8.43323988492769   -2.49092617344388
H         6.00520988567636    9.76547202497508   -1.29463756002268
H         5.35157606000850   10.00027627768827   -2.93197590619827
O         4.18192682826664    8.83730574220689   -1.75084846922369
H         4.28123857673242    8.16941090081482   -1.05556870026222

