75
CSD_code = VOMPOD | q = 0 | S = 0 | Stoichiometry = C30H40BrIrN2O | MND = 6
Ir        1.31662014462353    0.83575527811232   20.42085890668252
Br       -0.07904345231067   -1.13982392634457   21.01924212067976
C        -0.10793665579832    1.18063182094476   19.05404883436199
N        -0.27617158796597    0.53184654567486   17.87441963806146
N        -1.18793969603299    1.98613115499355   19.22087687901360
C        -1.46489759609818    0.90679444255429   17.28643480771110
C        -2.05064927226003    1.84480013012373   18.15837652424292
C        -3.26532153616574    2.44775032114848   17.87488804868760
H        -3.70862230926807    3.16413868877668   18.54822609026736
C        -3.88835698174940    2.09268979691967   16.69362536226036
H        -4.83683872893025    2.53996414246170   16.43847531140194
C        -3.31456375932066    1.16611156990562   15.82795081675224
H        -3.83015270004360    0.91092775314921   14.91475038069873
C        -2.10242319340911    0.56058947875116   16.10252985671280
H        -1.67689011902198   -0.15028910523079   15.41634358634599
C         0.63942809031656   -0.52200726651703   17.46285315331760
H         0.44092749738342   -1.40131105034401   18.08078908597524
H         1.65143895447512   -0.18520285695622   17.71167075139687
C         0.58254079246617   -0.89353460181930   16.00454192876298
C         1.21386520346169   -0.07928123478131   15.06309309421044
C         1.27052235699215   -0.47944302219838   13.72759173132184
C         0.64914960615768   -1.66490488594658   13.33029887065936
C         0.04352739190831   -2.49164878393410   14.27928456864082
C        -0.03113644387294   -2.08719051211411   15.61382502589000
C         1.80659101993921    1.23942445585923   15.47968633513008
H         2.87400218108499    1.13783397899721   15.68273332610206
H         1.32229902019680    1.62587933442780   16.37059894842264
H         1.67817552016845    1.98035860045031   14.69509968108525
C         2.02759885299340    0.35059994881801   12.72655153260924
H         1.37649442744881    1.09215634121315   12.26108762695980
H         2.44723466633289   -0.27517725204709   11.94442270568688
H         2.85149036398253    0.87281218232153   13.20389793790367
C         0.60662378823108   -2.03743496831831   11.87293334375989
H         1.47477123380109   -2.63745331845091   11.59658235627458
H         0.59301175013246   -1.14852483701666   11.24887473363645
H        -0.28911973217813   -2.60862947807304   11.64718058274717
C        -0.50492972546265   -3.83221889304375   13.87091774747986
H        -1.55615891661424   -3.75878055360894   13.58811657363788
H        -0.41969521353729   -4.54411154305115   14.68666660479277
H         0.04863068524269   -4.23438289421368   13.02760603598719
C        -0.80992302480929   -2.90710506790466   16.60642964380471
H        -0.16846542502377   -3.63486407883497   17.10408604781310
H        -1.61379864028067   -3.44412698238628   16.11187491032179
H        -1.26581367292002   -2.28056899383501   17.36781846504545
C        -1.48369733617168    2.73631565004750   20.41087849561684
H        -1.94629589723917    3.68938538014331   20.14278850066934
H        -0.55320701991636    2.93084303782019   20.94878805583992
C        -2.42534547958627    1.95448677399039   21.33293960371947
H        -3.34990228322402    1.68837389081094   20.79566937193902
H        -1.93971452710054    1.02192571181409   21.65260214998055
O        -2.71831527012197    2.76690330911025   22.44516092721474
C        -3.47860035116482    2.09614500226554   23.41805279854084
H        -4.44894394251141    1.78028810802964   23.01546628985171
H        -3.63422688314690    2.80111594453000   24.23191005444093
H        -2.95057930593900    1.21101580372831   23.79159171453360
C         2.82001996143810    1.90500782387359   19.37700763368622
H         2.57125773551162    2.08852076058097   18.33235426535203
C         2.22886697245719    2.76617111877649   20.31902231099789
H         1.54888248200612    3.51594701461243   19.91933057508722
C         2.91328031146367    3.18422929014175   21.60349305083608
H         3.99207559194662    3.21505542006999   21.44082644676741
H         2.60006019836554    4.19815250337604   21.86128756822254
C         2.57359371979623    2.24982447519392   22.77972722203553
H         1.68759705486242    2.63321920737133   23.29154429774955
H         3.39091187956578    2.25077498000903   23.50928710911070
C         2.28614148907844    0.83090641026703   22.35255614852375
H         1.63321802105998    0.29719741054184   23.04103790857461
C         3.06853363930127    0.08556452538979   21.49603422828653
H         2.96999691676832   -0.99687963698486   21.53151976089854
C         4.37031480203561    0.58137882697184   20.90997461056813
H         4.83715752679070    1.27421228423469   21.61189455608248
H         5.05163368811185   -0.26362097595055   20.79174738164022
C         4.17610375271118    1.25739966923999   19.54011564726038
H         4.28538829136691    0.50480183715298   18.75494831567165
H         4.95929909725389    2.00635858421355   19.37628248708911

