38
CSD_code = VOMPET | q = -1 | S = 0 | Stoichiometry = C17H7AuClF10N2(1-) | MND = 4
Au        2.16242526021562    2.47644498279219    3.78863600386869
Cl        1.15122727612053    2.76704116048524    1.79953092819912
N         3.00550859899303    2.16251978519662    5.52415801710418
N         3.09978115181545    0.89659640271513    5.94059642591536
C         3.66560220685596    0.92170644633084    7.13656872676327
C         3.93377923216444    2.24788443409660    7.51076415590824
H         4.37996047694474    2.59756232501135    8.42118245367367
C         3.49191516553489    3.01486076006952    6.44962270963084
C         3.93076160269612   -0.32918190251411    7.89989492900813
H         3.59989886574632   -1.18157120530329    7.31375853580008
H         3.39669615586632   -0.31766795932379    8.85006266708705
H         4.99567978545594   -0.43031685353205    8.10847482396951
C         3.49611792621462    4.48886594260469    6.26572619101766
H         4.35896391701808    4.80281290245235    5.67571872629552
H         3.54551373473990    4.98105820059909    7.23445836094034
H         2.59346843988573    4.81008451231228    5.74957623536392
C         3.84462088198255    3.29772583224860    3.01942612486736
C         4.89979877831730    2.50824880952220    2.58387007388301
C         6.03904032232168    3.03389167206600    1.98201910466810
C         6.14269173427422    4.40581512025774    1.79772271423641
C         5.10632829856551    5.22855792733012    2.21698785143419
C         3.98369720947202    4.66307228628097    2.81252007841726
F         4.83759292770680    1.17873491778487    2.74382487890412
F         7.04046800544329    2.23252467633320    1.57997264512958
F         7.23722400194442    4.93310816180510    1.22308970064167
F         5.20293609047845    6.55930846404260    2.04944795984325
F         3.00670389143277    5.49471850933461    3.21013852172841
C         0.50251762568131    1.64610381096060    4.56855562528047
C         0.15773001481692    0.32791951090555    4.30752972597189
C        -0.95458140429427   -0.28102296662286    4.88009889198306
C        -1.75789972532014    0.44101788030188    5.75243787432130
C        -1.43935251597057    1.76095452350198    6.04003086209329
C        -0.32007459394463    2.33372221552651    5.44676164640723
F         0.90838920174528   -0.39919457862727    3.47227853930356
F        -1.26191781019679   -1.55977482582269    4.60277839296825
F        -2.83478745930487   -0.13354916635720    6.31588409236796
F        -2.21081234579136    2.46476069756633    6.88767215423749
F        -0.03221292562566    3.61265658768003    5.75132265076171

