39
CSD_code = VOMROG | q = 1 | S = 0 | Stoichiometry = C15H15N6O2W(1+) | MND = 8
W        -0.33321455566259    3.81250646418581    3.19778570448682
C        -1.51831021984159    5.36511826982933    2.72883394951365
C        -2.67665576709994    4.25703925501014    2.65626164688041
H        -3.47017807012167    4.67788256652419    3.28294971898917
H        -2.99074799875562    4.27270770005356    1.60448463993014
O         0.49608211580220    3.87573434803500    0.20682280812131
C        -1.78781716048056    4.02025155435662    6.10728877847801
H        -2.77382397410946    3.94604279103247    5.69305265274766
N         0.33728005704615    4.07668504648868    6.19275674842077
C         1.88318858061272    1.59548803959411    3.32167480153701
H         1.53612701909731    1.18785933822192    2.39014539519129
C        -0.08078757206878    4.25973336935640    7.47269445462463
H         0.60975491274199    4.39307068641986    8.27973548053515
N         1.11738780102328    5.35878712847719    3.71494037811252
C         0.21164678388732    3.83720075690804    1.31005377885932
C         2.60777717134518    6.40660853527282    4.99102074339387
H         3.25647042586903    6.54312550362710    5.83217661241729
C         2.87762063530344    1.10453059918967    4.17780034392708
H         3.46071367540915    0.21671272495721    4.05088955778306
N         1.37956651405201    2.71877715954470    3.80271506828347
N         1.83767558268145    5.30033326619277    4.84809491740133
O        -1.63699378303775    6.51835648971336    2.52171528605260
C        -2.31082233609138    2.86511734623279    3.10023351502590
H        -2.79384945329447    2.43943059752660    3.97839566454218
N         2.02660383357261    2.96598300879720    4.95450541187489
C         2.36327932336152    7.20120061245312    3.90079592411508
H         2.79772985063385    8.15396391960863    3.68238106263541
C         1.42374936175454    6.50131420652770    3.13052989306531
H         0.97217052921584    6.78788554299421    2.19959770099372
C        -1.44835425753702    4.22370113848031    7.45235408422177
H        -2.11720273034267    4.32822529854575    8.28010236077498
C         1.69235462268887    4.15046980632158    5.70581670941890
H         2.37157293524217    4.24291957981004    6.56333146326812
N        -0.70734674727044    3.93186673709505    5.35589451437327
C         2.94964044935356    2.00652716170567    5.20897499243572
H         3.57473726374445    2.03399574985795    6.07798408435241
C        -1.59601327780531    2.07018598820181    2.21464016967817
H        -1.67048841795939    2.23333691816432    1.14504231092999
H        -1.40072312296060    1.03992479468861    2.49462667260774

