33
CSD_code = VOMREW | q = 0 | S = 0 | Stoichiometry = C12H13ClMoN4O2 | MND = 8
Mo        0.57625560455387    3.19861182135388    4.58845319407404
Cl        2.81001782987794    3.19876031556690    3.47017157700912
C        -0.98685321414584    3.19874625647370    6.13460853350115
H        -0.76000048087486    3.19871784448849    7.19941692558055
N         2.61163165218321    2.01301829819443    6.65041770891669
C         2.47036586971833    3.19879903776521    7.44307832495962
H         3.23073090808428    3.19882522355439    8.22926305006308
H         1.46544626447241    3.19878291047632    7.89700782553599
C         3.57880511017791    1.07222647383960    6.70899502799020
H         4.40355821791383    1.14938431680727    7.38848486489748
N         1.69149383786896    1.70873313115375    5.73468288194047
O        -0.52605243100701    1.19669802375332    2.52839064638118
C         2.06429901200614    0.56106241333996    5.20058998995222
H         1.48197118684899    0.09716088954260    4.42731823793875
C        -0.08368903177750    1.91078008484506    3.31020564382620
C         3.25414704108901    0.11099382430809    5.78496115355806
H         3.79658425542154   -0.78138585020263    5.55307231446358
C        -1.23534078269823    2.01113022625981    5.39988387668659
H        -2.11153148758606    1.99919335030187    4.75751122704750
H        -1.07173050929048    1.06412246424880    5.90934428861583
C        -1.23526505572393    4.38640821578437    5.39992447205899
H        -2.11144626975849    4.39842664886779    4.75753661131355
H        -1.07162681723091    5.33339150159532    5.90942779958197
N         2.61155238008348    4.38456162400501    6.65037157025960
C         3.57871467826545    5.32536772535253    6.70894985003763
H         4.40346580458112    5.24822345150007    7.38844795256631
N         1.69139076544393    4.68882496265249    5.73462586345157
C         2.06422625559731    5.83648844358872    5.20051145392271
H         1.48192102559177    6.30037641752264    4.42721682307081
C         3.25407163067704    6.28657497108749    5.78489152751466
H         3.79652342441651    7.17895098092852    5.55299769862484
O        -0.52548875877590    5.20106591091383    2.52853172903401
C        -0.08334791600393    4.48687809013040    3.31040935562507

