30
CSD_code = VOMVUQ | q = -1 | S = 0 | Stoichiometry = C11H11NO6V(1-) | MND = 5
V         7.91422402670884    0.46049286702300   13.87971695480074
O         8.84395722884159    1.28546170302810   14.78727676037424
O         6.23445160448717    0.84382414940241   14.88799669235244
O         7.43085465387413    1.23825410902073   12.64504899027781
O         9.18969025328638   -0.56875700763526   13.05989855266003
N         7.47670975225041   -1.38334837849853   14.77352947685365
C        10.06931122053947   -1.24348191781146   13.70166482529930
C        11.40578737233944   -1.30597373441700   13.23215028265873
H        11.64470227307387   -0.73136468868842   12.34859365695411
C        12.36537373775369   -2.03103787697088   13.89202705185651
H        13.38205221925899   -2.03649737475474   13.52147616652139
C        12.05033106748153   -2.76380658141057   15.03774387292058
H        12.81602544175948   -3.33036052354451   15.54810480659706
C        10.75740634339972   -2.75883026757274   15.50421573704736
H        10.49525337639788   -3.33004950328058   16.38645183357313
C         9.75821139566919   -2.01589037402921   14.86582000696882
C         8.39640699983017   -2.09679522512779   15.29455285441525
H         8.14557742003148   -2.85091800094836   16.05784901898003
C         6.11842078997606   -1.50461499743605   15.11958878921948
H         5.91667313539433   -2.22507931592744   15.93200587728962
C         5.63253699146714   -0.06300995443813   15.51148712513388
O         4.70507250130756    0.03577332555615   16.29798613942787
C         5.28519747388393   -1.88102313144157   13.86457575812095
H         4.22587554680016   -1.65696298193636   14.09587948624559
C         5.42985529663700   -3.37280481806310   13.55893705834399
H         4.87936208540975   -3.60715379906227   12.65152825343997
H         5.04393571340952   -3.97149959255653   14.38074641114489
H         6.48019971062510   -3.60776836749569   13.39496068414756
O         5.69456357696432   -1.18349368224786   12.72032183028468
H         5.82328079114075   -0.23568405873673   12.91156504608993

