32
CSD_code = VOMWAX | q = -1 | S = 0 | Stoichiometry = C12H13NO5V(1-) | MND = 5
V         2.57303903961217    2.61818722925659    1.91447013855587
O         3.49990510660477    1.29547616795121    2.84082215430972
O         3.30655762576646    6.18876119334626    0.21815152228650
O         2.38060592634621    4.32307849987259    1.00286604812191
O         1.98705911063572    1.72708293560471    0.80220754653261
O         1.55352794482024    2.91979730086971    3.02288774754201
N         4.58544705850441    3.21348127970604    1.54070383313586
C         5.37378732594260    2.35697401059616    1.02058677119523
H         6.21406536169812    2.69137526200694    0.38857290042578
C         5.27753945522838    0.95545427957006    1.29221985549740
C         6.16279011306283    0.04804155872623    0.70138418855626
H         6.87066769546382    0.41561548426385   -0.03184464044584
C         6.14316805849262   -1.28599232335413    1.03347557490716
H         6.82507207194102   -1.97962957831072    0.56251823523478
C         5.23377687894240   -1.73684402810697    1.99165790299751
H         5.21976847722463   -2.78595680775430    2.25719535586801
C         4.35864525355668   -0.87106668586945    2.59737769612593
H         3.64561149546698   -1.21626355953877    3.33251124810716
C         4.32125697467924    0.50459421315412    2.25571105102323
C         4.72950756673986    4.59933358434958    1.30818510059820
H         5.50640377522911    4.82611262592030    0.55163313062973
C         3.33670131872080    5.10265375371089    0.77751557652211
C         5.05541145996899    5.37368566838842    2.60334377468293
H         5.04694232699216    6.43746920743698    2.33381660073179
C         6.45063987347973    4.99395431083471    3.10301059405013
H         6.70044317012348    5.56176886928400    3.99784634524413
H         7.20567133847927    5.19904332590072    2.34475445012329
H         6.48556168019493    3.93269945918183    3.34855520648837
C         4.01184219973213    5.12453811685623    3.68935317275007
H         3.98025912032759    4.06721471433633    3.96354809064600
H         3.01868048531198    5.41253734009600    3.34469638288940
H         4.25244471071047    5.70762259171347    4.57866644466740

