61
CSD_code = VOMYIH | q = 0 | S = 0 | Stoichiometry = C26H28O3P2PtS | MND = 4
Pt        9.28850964564920    9.07925767061563   11.35247731268522
S         7.29420445351053    9.86713426383816   11.89971041721173
P        11.05874423860387    7.62940850385300   10.52661739609185
P         9.73376458729553   11.05374834930053   10.30758683761098
O         7.29238374910247   11.32543496706458   11.98283315500384
O         6.41824596244325    9.31663703137884   10.88259154471788
O         8.53732198102090    7.35187416398572   12.22302222554824
C         6.73166089946704    9.29447153191850   13.51398006451574
C         5.88705732026117   10.15551994391014   14.15601823561935
C         5.34008849831240    9.79925834612620   15.39464814773870
C         5.66442962791267    8.59518913157523   15.95418420255317
C         6.53566812248697    7.69063461864461   15.30962255980389
C         6.83340429877922    6.44021899607746   15.88115698028063
C         7.65633870791622    5.56681506014880   15.22088623494633
C         8.22561873177837    5.90894197504571   13.99985010973839
C         7.98209380354960    7.13553925886337   13.38150670860369
C         7.09538887471294    8.05029191030286   14.04823491023048
C        10.82607231775995    7.88916337730565    8.73881671085307
C        11.83421794346183    7.90272201949568    7.78591620130540
C        11.52697206036231    8.13387860145381    6.45536749445997
C        10.21623796701667    8.34931859882644    6.06758538468262
C         9.20332087373431    8.33614635897014    7.01487478186902
C         9.50628575845266    8.11276551063905    8.34419209020320
C        10.56981712279655    5.86940961037351   10.66063015491355
C        12.88085345238814    7.46700332546902   10.74349792440395
C        11.26092964483221   11.08165083409330    9.31091954047168
C        11.29523900558897   11.27313666667706    7.93713258638568
C        12.50486558791746   11.26730785886014    7.26330869711139
C        13.68881311850383   11.07643046972973    7.95328731501455
C        13.66247500921423   10.88036482468194    9.32531243913673
C        12.45454259495736   10.87411873042833    9.99595987156009
C         9.97725036753943   12.53633880342350   11.35004512311475
C         8.42668094919381   11.58583423576703    9.15581637001047
H         5.65878245296146   11.10231227620615   13.69247133371046
H         4.66873919653426   10.48019631824740   15.89692891520505
H         5.25123879730180    8.30850993981382   16.91135772639006
H         6.39190453181346    6.17947631689719   16.83157098834791
H         7.87866627392289    4.59933305168073   15.64954735815406
H         8.87105323434638    5.20961884469427   13.48853012239860
H        12.86205344429450    7.74419116479722    8.07383857346021
H        12.31677751320202    8.14544147816102    5.71852498876658
H         9.98270812067531    8.52818138890474    5.02841782156837
H         8.17876304414646    8.50028975840928    6.71454212290783
H         8.71583813784366    8.09923315069183    9.09683557375701
H        10.81103538474779    5.51482763346859   11.66070404173470
H        11.09415147323440    5.27311142325012    9.91406620860758
H         9.49434150263124    5.79488113170417   10.52067823213199
H        13.25732631930458    6.62425855892706   10.16621734414948
H        13.08145346774658    7.29142964003574   11.79928271002503
H        13.38130599612016    8.38127599823454   10.43803197860472
H        10.38094033104764   11.41955758302463    7.38406154587924
H        12.52186342450754   11.41442758819708    6.19354893037363
H        14.63063744306163   11.07779118850212    7.42507544381102
H        14.58643020656895   10.73355250453951    9.86684732379228
H        12.41771318462765   10.70476419507809   11.06484095016148
H        10.18622474621016   13.39907675008941   10.71797696472315
H        10.80240528013046   12.37959656319586   12.04121457536407
H         9.05703056211506   12.69067656855526   11.90971656276059
H         8.27422642181211   10.83106047473095    8.38713295750807
H         8.68686860672209   12.54376217598581    8.70583988387767
H         7.51142363018210   11.68520078460046    9.73630909068300

