75
CSD_code = VOMYON | q = 0 | S = 0 | Stoichiometry = C36H32O3P2PtS | MND = 4
Pt        9.74112507841751    7.69607897232814    8.29029146376065
S         8.32465601563145    6.13246514806693    7.66434493273678
P        11.26026761161880    8.98863801136965    9.58892756331468
P         8.30167346519753    9.16753654182157    7.34102694186987
O         8.65424539824623    5.32635305950789    6.51355512481147
O         7.02063081478966    6.80672168052077    7.60168704843118
O        10.97753638070409    6.05078477492552    8.63283340028790
C         8.25345124303637    5.04826872041511    9.11173469403500
C         7.00237850629687    4.59991246654192    9.43093780352275
H         6.16135405206283    4.96818433970461    8.86404706536224
C         6.83554543565644    3.67936159726256   10.47274217207453
H         5.84476802893551    3.32807872626148   10.72152578760198
C         7.93031238515740    3.22876490114262   11.15629188327811
H         7.81707519323307    2.50801517568276   11.95457069657971
C         9.23311945030072    3.67456431015969   10.84428114244877
C        10.35522432104196    3.16853568112956   11.52594443733493
H        10.20776561550027    2.43396420702547   12.30392022052793
C        11.61250326047041    3.58735758769877   11.17947121263171
H        12.47868142231850    3.18433880825482   11.68566035479351
C        11.79674450937888    4.54923452391850   10.19405769083578
H        12.79209763966618    4.88888213993361    9.94709812217237
C        10.72642294835393    5.11989231274492    9.50645111975687
C         9.40398452474683    4.63286852703126    9.80324454141085
C        10.87320102649010   10.61071981275160   10.37153192673676
H        11.62587518129674   10.85451865216925   11.11995440765542
H         9.90199701365562   10.53475809279289   10.85696412198523
H        10.82262443716858   11.39007482960570    9.61451669406471
C        12.96368869324044    9.16324844835064    8.99558355499313
C        13.68413889190671   10.35231897621471    9.01314447564163
H        13.25212951147910   11.25011061770318    9.42840371531608
C        14.96583449490792   10.38887063634403    8.49061357685934
H        15.52504718403108   11.31334241808125    8.50976722300490
C        15.53172558533984    9.24948034438216    7.94375034661688
H        16.53249334371176    9.28563551000556    7.53911621964311
C        14.80839957862614    8.06682837182453    7.90622585653785
H        15.24357168568630    7.18142319184064    7.46702729741423
C        13.52747243845346    8.02347779297307    8.42179658266165
H        12.93947742197041    7.11566806362900    8.38146789376685
C        11.40076248301955    7.95032265183108   11.07822315333227
C        12.58858778320975    7.72742088071433   11.76069833143424
H        13.50273175643235    8.19045098151974   11.41532436718797
C        12.59934584538593    6.89823947118527   12.86910832883563
H        13.52638123711384    6.71713375149061   13.39318739732694
C        11.43079313872670    6.29478462020720   13.30238751068064
H        11.44725249825079    5.64220178093031   14.16210742467144
C        10.24217658139468    6.51450559131500   12.62491820503176
H         9.33349159093679    6.03102864849149   12.95071340323381
C        10.23018005054366    7.33372743971505   11.51316760601499
H         9.30764400627719    7.48986638377105   10.95499662623201
C         7.81407155432636    8.84960918161311    5.61158310363857
H         7.37801316558724    9.74761793513649    5.17275225584645
H         7.11086319677979    8.02001917196974    5.59707073356716
H         8.70799609116605    8.57181045603545    5.05302143986762
C         9.19326071502575   10.74973402464756    7.13461408067316
C         8.64453059555626   12.00569219224592    7.34548539049261
H         7.60812148917910   12.09742698555261    7.63898198598986
C         9.43023252977454   13.13634687306374    7.18765027312685
H         9.00361331803364   14.11439472592119    7.35589730603975
C        10.75951034125493   13.01667965149061    6.81792785408632
H        11.36732240084507   13.90149826825782    6.69966283655182
C        11.31195766776569   11.76237965662910    6.60146123795959
H        12.34911255614520   11.66702084586966    6.31584194169447
C        10.53107222796571   10.63451974126202    6.76449945292381
H        10.94703563071800    9.64123596967520    6.60776709088743
C         6.80664392821964    9.61087174653840    8.25710626104718
C         6.89989245822394    9.56216818727071    9.64395994882381
H         7.84267518746918    9.26001313100647   10.08777537683318
C         5.80907452783029    9.87581253972331   10.43134287686004
H         5.88403155008759    9.83080157026113   11.50817553421329
C         4.61242995306799   10.23878240193852    9.83320070276425
H         3.75437847070317   10.47872963157493   10.44366916256789
C         4.51275574445115   10.28191192258674    8.45246857823424
H         3.57601553015668   10.55571861329149    7.98905682205590
C         5.60465265368018    9.96812333769651    7.66135875259410
H         5.51414975584939    9.99092106541095    6.58622733422362

