75
CSD_code = VONKEQ | q = 0 | S = 0 | Stoichiometry = C37H29N6PPtS | MND = 4
Pt        2.61811370848568   15.03035468860452    3.22793562336576
S         4.80777070970066   15.39878730219552    3.93615139122268
P         3.26963143232223   13.31183173629453    1.88212081791039
N         0.65910358191356   14.84235273907989    2.70548044027182
N         2.17582487122014   16.59798364031200    4.42645193321222
N         3.17125733242312   17.15558441298091    5.15557508290182
N         8.56779064289041   15.47850564819908    4.24199577117408
H         7.56252597814785   15.54985461341848    4.17922323662865
N         6.62461908373955   16.89042351159108    5.61034825495776
N         5.35307654312036   17.25622314062619    5.75182308948134
H         5.07979931183613   17.98445115179786    6.41424045632191
C         0.04215652974654   13.92779514172597    1.89021048961155
H         0.59232393631616   13.11245007534552    1.45234070684167
C        -1.28912377369149   14.18694266841951    1.74898148606377
H        -1.99480727304357   13.62609206374270    1.16849847676138
C        -1.55349466219492   15.34416021491417    2.52791673942620
C        -2.68693642995661   16.09612296949203    2.80029670977521
H        -3.63834454361112   15.83012097082056    2.36282222393165
C        -2.57824015146861   17.19161509960870    3.64344050031275
H        -3.45456671691071   17.78397915091371    3.86296442064624
C        -1.36715607853512   17.54056709030604    4.21615643680781
H        -1.31508017737498   18.39517256400504    4.87546343720797
C        -0.19532696508209   16.81313338494218    3.96799639827713
C        -0.29831989468480   15.70602710635798    3.10432166723751
C         1.02428075264539   17.18568748249557    4.58558341659382
H         1.00892974499230   18.03652826618301    5.26385292069663
C         4.36772603638183   16.68770602929884    5.00754594603392
C         9.39731226863917   14.72872664670949    3.46124230967818
H         8.99804172001705   14.13362701751473    2.66273633903093
C        10.68915878648579   14.88707024115735    3.86531847290369
H        11.55733913541701   14.42354234039971    3.44036808965444
C        10.66956693463663   15.79301180779350    4.96260264646036
C        11.64884908068251   16.34783282646169    5.78610554698204
H        12.68934586557500   16.09271681502799    5.64979147169398
C        11.26047287620721   17.23070718259858    6.77333436722910
H        12.00592608869527   17.67121474265893    7.41940898623832
C         9.92455163702874   17.57695924557944    6.95737655491992
H         9.66240058202494   18.27788613615010    7.73722323790213
C         8.91432334132711   17.04456367764998    6.16106169148343
C         9.31004248425195   16.14083213495579    5.16229750524880
C         7.53643606544393   17.41616119167912    6.33485903641311
H         7.30215113862169   18.16876318033737    7.09716952466441
C         2.71111728329951   13.62651763554057    0.17897304557724
C         2.60439997689264   14.97356934644999   -0.15884947040810
H         2.84440242554862   15.72302544300705    0.59508301753644
C         2.18484782856184   15.34458485519690   -1.42154625056344
H         2.09999337672392   16.38955564504462   -1.67979354122557
C         1.86207931840444   14.36928907276137   -2.35236345448771
H         1.52684062064314   14.65445295768194   -3.33841892032342
C         1.95800477049777   13.02882262416938   -2.01685368114404
H         1.69637256113610   12.27123978340474   -2.74101964002262
C         2.38216781603539   12.65219752080523   -0.75411411548872
H         2.43781353164754   11.60545234247438   -0.49284151349586
C         2.70178494593962   11.65484268734081    2.37201131310071
C         1.80580503947922   11.56187573234268    3.43174387797577
H         1.47409593433356   12.47289799614438    3.92078564980888
C         1.35569124899605   10.32458989285869    3.85479544243852
H         0.65931115788837   10.25540931759271    4.67697691352783
C         1.80347140639076    9.17499764370995    3.22444503082866
H         1.45142731103832    8.20774144258383    3.55099626356911
C         2.71655233924042    9.26177604034233    2.18501311645321
H         3.07801248969020    8.36292112938202    1.70712496870787
C         3.17400402030843   10.49635224334931    1.76194746366160
H         3.91094809289441   10.56214914579207    0.97296204689378
C         5.04306505834525   12.96388713117562    1.65052724579601
C         5.72573911644733   12.37763920186076    2.71417813287591
H         5.19932652008928   12.18792925419517    3.64011332359524
C         7.05842819708815   12.04221142073897    2.58297334309856
H         7.58474247327360   11.58570671227931    3.40813425784370
C         7.72129997145017   12.29357337690013    1.39028635118682
H         8.75958693931109   12.01523006080987    1.28056644144771
C         7.05395526094480   12.90331157840180    0.34170503765988
H         7.57362531640940   13.11234006548979   -0.58194296374394
C         5.71751578039958   13.24247073555294    0.46867010573352
H         5.19822033639494   13.71527191441907   -0.35300269263006

