100
CSD_code = VONLIU | q = 0 | S = 0 | Stoichiometry = C48H41Cl2N3O3P2Ru | MND = 6
Ru        3.54545544326226    7.93032824087553   11.63412346787772
Cl        2.45720317154037    8.55583458495062    9.65626615806251
Cl        4.49625939062505    6.95276063808189   13.55569620196388
P         2.37727749856430   11.67920204707896   14.04264696997892
P         5.55518588567020    8.98193539888681   10.98634394848130
O         3.52322924662516   10.51148139340402   12.77744470424709
O         3.61369369316711    5.99416508369627   10.78907024864657
O         1.66171942211571    0.15006098065609    9.31962301681814
N         2.96900131696812    9.37429245845305   12.55651913199842
N         1.85992494406492    7.17298434769343   12.17343176109539
N         1.55491948738540    5.95643159549287   11.80819313313459
C         1.26790473319791   10.30213437570551   13.86028185595288
H         0.30717590601339   10.33612638285717   14.34275335218479
C         1.71262789847803    9.23287912434667   13.13282158011140
C         1.09656424988191    7.96265152403778   12.87837349789583
C        -0.25885082471932    7.58627392380897   13.37936399790003
H        -0.48655772181578    6.57645903647214   13.04889202102178
H        -1.00980231070037    8.27276052820035   12.99016002000779
H        -0.28691883387472    7.62704562684848   14.46784975553664
C         2.53482510702925    5.40349908177035   11.08042514647419
C         2.31389612761319    4.02963782373120   10.61444079737297
C         1.16171016222338    3.32174310635575   10.96211223701709
H         0.42342802520196    3.80004601711071   11.58483571840446
C         0.98027308061124    2.03558283646188   10.51406914408635
H         0.09773965732064    1.47135469612908   10.77144271610016
C         1.94277952833227    1.41992435291460    9.70550302248983
C         3.09275610811371    2.12447184679336    9.35663423490488
H         3.85116417304961    1.67718919203237    8.73343943316900
C         3.27018409634790    3.41624078631311    9.81035379931355
H         4.15720996363398    3.96972590831745    9.53997714625957
C         2.58395133073809   -0.53141363143856    8.50287080024620
H         2.72579273154280   -0.02116318033710    7.54494688419754
H         2.14994795176530   -1.51423444465961    8.32591248973600
H         3.55176911527182   -0.64808150200852    9.00070205677599
C         2.60479304639051   12.85054852156805   12.66930465376357
C         1.51672140621648   13.10139567592001   11.84196999695849
H         0.56496201085776   12.63300760049220   12.05648695292867
C         1.66344259867123   13.94397114140643   10.75502872027170
H         0.82131031546106   14.13894545521581   10.10748152779858
C         2.89201079822961   14.53131728817538   10.49665081740575
H         3.00557901586214   15.19099726394632    9.64877270474073
C         3.97708284538089   14.26891998901098   11.31791609209890
H         4.93558684950716   14.71927683913165   11.10542073010829
C         3.84035423877883   13.42316523974967   12.40433983931143
H         4.68342724241196   13.18740256629844   13.03648220896654
C         3.78769916523713   11.51517276131059   15.18152235371999
C         4.25521216243437   10.26591759556289   15.56478927720080
H         3.85420035127471    9.36387909374435   15.12194975801763
C         5.25412677336020   10.17487493085934   16.51733989626117
H         5.60731065480914    9.20142105397174   16.82174236849016
C         5.79537407967789   11.32319388916311   17.07023497894583
H         6.57773697287833   11.24889144114257   17.81120169364566
C         5.33549041580609   12.56992130210998   16.67646008289359
H         5.75960742816253   13.46554983777066   17.10654950629016
C         4.32037450517659   12.66907313267331   15.74401762289287
H         3.93062974642839   13.63537681389509   15.45221068428693
C         1.31942557944545   12.68996922025002   15.18521052617299
C         0.91994548921096   13.99971861105535   14.96061571229939
H         1.21164873302343   14.50536235652488   14.05073655904528
C         0.14596518483278   14.66547848748605   15.89714654562905
H        -0.16300350513846   15.68366432468133   15.70997728823326
C        -0.22960288012184   14.03237177094631   17.06866343306456
H        -0.83357674999500   14.55384692015904   17.79629062953641
C         0.17590645927146   12.72872059337382   17.30949204179090
H        -0.10754792394818   12.23349316264384   18.22672375836191
C         0.94662367668035   12.06750023867817   16.37387066870674
H         1.27932676280378   11.05284473936944   16.55896311402365
C         6.97672991582706    7.90698090920395   10.62108928717203
C         6.80286100044311    6.52976106327141   10.57025689544252
H         5.82121011881638    6.10983840457539   10.74790736570889
C         7.88173418134875    5.70471974521013   10.30024632404563
H         7.74524056954177    4.63361184222488   10.26515462341051
C         9.13465832706610    6.25080049863950   10.08133755704096
H         9.97675722724645    5.60712969299897    9.87215256993166
C         9.31241658669538    7.62537708312779   10.13402724652163
H        10.29145331185016    8.05039982557319    9.96528152390015
C         8.24041649504604    8.45339240875291   10.40525488905831
H         8.37489668296970    9.52573267874224   10.45221515266797
C         5.36483963919270    9.98878666459696    9.48771526535706
C         4.44260639704244   11.03371512050842    9.53522232206499
H         3.90495836236865   11.22754844798814   10.45413876048039
C         4.20866803207363   11.80431843414328    8.41358037911217
H         3.49115656860910   12.61068226096197    8.45815113694137
C         4.88014399269357   11.53060866052778    7.23210436884913
H         4.69061487379530   12.12764674846531    6.35180342078010
C         5.78025072279543   10.48076602678098    7.17534969018075
H         6.29155552260340   10.25611187236944    6.25032565767180
C         6.02181164693874    9.70597460671701    8.29714731236554
H         6.71284500934734    8.87674380545567    8.24339018333478
C         6.36352834649424   10.11356374808819   12.16703481581579
C         6.59977278228098   11.45867058459505   11.91717168932877
H         6.26809947658138   11.90584222996336   10.99133632185645
C         7.26172547178825   12.22888355045186   12.85847118698250
H         7.44238653302688   13.27664681267900   12.66099375425230
C         7.70444432113848   11.66259220597123   14.04103161497922
H         8.22596018180982   12.26708730065390   14.76902316078866
C         7.48089064877179   10.31756788668344   14.28629669627888
H         7.83713255288962    9.86933773850795   15.20169903073993
C         6.80684565781779    9.54680597319437   13.35930859811173
H         6.61180563878123    8.50073512904464   13.55349800549105

