65
CSD_code = VONLOC | q = 0 | S = 0 | Stoichiometry = C33H27IrN2O2 | MND = 6
Ir       15.45324975222376    1.62494659781277   14.50765074931074
N        16.44791958321742   -0.06215159602380   14.81438934797189
N        14.40079338520081    3.29392210529629   14.21359587085031
O        17.35791709175075    2.43573685885398   13.70685280370696
O        16.11075167023312    2.60979150538215   16.38435385731806
C        15.04046318812710    0.68421826468170   12.78448082062673
C        14.21237035787605    1.11188576800813   11.75445862640937
H        13.58377563234700    1.98085180999046   11.89138621082388
C        14.16983315815811    0.43519370376611   10.54715940747192
H        13.50352856016138    0.76610785617774    9.76290930994995
C        15.01070156138989   -0.64011647117645   10.32390755246789
H        15.02969504090396   -1.12338119759631    9.35734672690464
C        15.86951372976680   -1.09102505428782   11.31879057733757
C        16.84311718290260   -2.13283848357359   10.94192928972079
C        16.42195954448762   -3.35457116886149   10.42628288190964
H        15.36407063486638   -3.56633015161677   10.36551042936291
C        17.34693239012341   -4.29727209666024   10.01319631733991
H        17.00906134300424   -5.24640066481438    9.62272756188518
C        18.70191625616930   -4.02475496465927   10.09433912169574
H        19.42292238097700   -4.75923450970603    9.76671213743910
C        19.12998025703701   -2.80427778890770   10.59251267492430
H        20.18644601537384   -2.58507648292351   10.64851980178698
C        18.20894998486658   -1.86417570615955   11.01363680458046
H        18.53640858327684   -0.91042315341555   11.40104366990777
C        15.83311101749610   -0.46800235775757   12.57704444634454
C        16.52829915092551   -0.92767882091547   13.77325266074081
C        17.14506089191855   -2.16815624205837   13.94524207012062
H        17.15035843629269   -2.88131079159862   13.13909683660033
C        17.73474796671323   -2.48735955908925   15.15247077167201
H        18.21730092743320   -3.44361842796717   15.28746449255252
C        17.68694599433376   -1.56413369575358   16.18850558644583
H        18.13981528587019   -1.76910999569786   17.14529179472985
C        17.01713939023143   -0.37595860403378   15.97550538568690
H        16.91694349864557    0.35324034304256   16.76788959068906
C        13.69663921090235    1.03378863751516   15.28374022566584
C        13.34145434107883   -0.20220611902162   15.81368180649022
H        14.03444047409788   -1.03129097912757   15.76334322009794
C        12.10654305588861   -0.40366759360367   16.40697017500538
H        11.85544307775121   -1.37486820053260   16.81015033262799
C        11.18838340582412    0.63268006739739   16.48858226771953
H        10.22755891101189    0.47092098411201   16.95525721964535
C        11.50654188064422    1.87071728402977   15.97029021749775
H        10.78750275257203    2.67432088194622   16.03595683772668
C        12.74814228454378    2.07641893696462   15.36908984153654
C        13.17176761079067    3.33756228223515   14.78130510109072
C        12.42472113120765    4.51522647526056   14.76165461560680
H        11.45178973294993    4.54045759551074   15.22491300438994
C        12.93504776583348    5.64590586998090   14.15532094693269
H        12.36769575370649    6.56440038182583   14.13822951202119
C        14.19014474814633    5.57746539331673   13.56459007524989
H        14.62463423955965    6.43329453718150   13.07323075536464
C        14.88108887392322    4.38268616401697   13.61906034350885
H        15.85787605646041    4.28806976078546   13.16480118430559
C        18.22026943313522    3.10757449638879   14.32065636218171
C        19.45837611704171    3.50859132328484   13.53425514310967
H        20.34630753749720    3.08411947180368   13.99845587668290
H        19.56332121466872    4.59171080855834   13.52465580533936
H        19.37780252696981    3.14380539721693   12.51307225993606
C        18.17003130664547    3.54446812860013   15.64802380740816
H        19.00308253402591    4.13678981111526   15.99756638450407
C        17.14900507650599    3.28854262383895   16.56807034852686
C        17.33037648058543    3.89478339330759   17.95046899487965
H        16.49852531729973    3.60624150403848   18.58859542252435
H        17.36676038052830    4.98004387993946   17.87729255241457
H        18.26342692389597    3.55100997434239   18.39256317271352

