58
CSD_code = VONLIW | q = 0 | S = 0 | Stoichiometry = C28H25IrN2O2 | MND = 6
Ir        7.22578205969226    3.34499970445279    8.50307994810769
N         6.21592472273703    5.03143465676777    8.36249801435525
N         8.27942827530192    1.65726700474587    8.69180694765902
O         8.82244965173792    3.88644974351968    7.04390948460039
O         6.13556891202945    2.70139885683665    6.68095487724583
C         5.67248075186916    2.91667003846970    9.69282595713751
C         5.49183066510280    1.73998876325441   10.40618616916596
H         6.29154376182135    1.01523176570842   10.46779111396960
C         4.29451624484806    1.47867817231705   11.04626723114982
H         4.16408256656958    0.56510215698086   11.60910317634963
C         3.24825085087871    2.37605881776657   10.93851250053580
H         2.30091147142497    2.14210984094517   11.40394305423650
C         3.37825689378779    3.56811893439873   10.24001929185192
C         2.15244616938348    4.43011979640248   10.13407253369981
H         1.27862172332295    3.85980296826616   10.44339444931664
H         1.99297620684210    4.76289887813930    9.11061353811975
H         2.22336535821436    5.29884419422117   10.78885124197228
C         4.62037886189736    3.86569694407465    9.64965278455783
C         4.99213765488939    5.09507981711920    8.95167494751027
C         4.27410356346626    6.29180563713953    8.89533899273119
H         3.33445975794794    6.39101920866983    9.40331675519082
C         4.77352274138413    7.38100970433094    8.20635282952542
H         4.21086031944238    8.30168468258308    8.16407237840496
C         6.00703149078379    7.27513859230836    7.58181597181152
H         6.43372276154908    8.09733613448192    7.03030582246373
C         6.69364916434906    6.08407033629244    7.70429330983651
H         7.67610145544689    5.96688798679351    7.26772387270136
C         8.34182233920436    3.84457975884979   10.09706545611534
C         8.31941875253509    5.00964914159474   10.85686419273364
H         7.56610451079498    5.76282957727274   10.66872626108934
C         9.24358969611801    5.23147430394401   11.86391199716572
H         9.20262159233336    6.14528824283403   12.44024275092256
C        10.22344328271668    4.28910771476929   12.13849596571872
H        10.94414248479604    4.46831342086580   12.92316178716312
C        10.27332702039400    3.12120942532898   11.40628556917525
H        11.03819635506362    2.39025450235469   11.62504366434960
C         9.34188794576047    2.89268886444123   10.39361728259405
C         9.30287319269570    1.68873498163707    9.57804722840658
C        10.20171827149965    0.62520943292529    9.65897505064961
H        11.01924982195095    0.66615364520211   10.36030830851922
C        10.04688473994115   -0.47283395860994    8.83625416348279
H        10.73978496268401   -1.29948572792445    8.88630390923497
C         8.98098924977701   -0.49489875483520    7.94621927948056
H         8.81666463978894   -1.33516681476304    7.29071635490182
C         8.12719530791113    0.59050297022733    7.91232256399414
H         7.28237996725226    0.60833999227350    7.23744033145614
C         8.81079500030019    3.71736946400062    5.80177415639626
C        10.06523224188211    4.12562559289218    5.04562177724774
H         9.82993373543795    4.90768711645315    4.32604192936139
H        10.46797476815794    3.27267610559840    4.50307150636922
H        10.81171270837612    4.49252251594822    5.74609238074913
C         7.76536676475576    3.20962037739828    5.02453730247256
H         7.93049509682014    3.16197658250586    3.95798290041124
C         6.52552462497927    2.76183694186057    5.49111565647850
C         5.54965273661612    2.27967092215650    4.42920266977105
H         5.98356810534072    1.45402947093644    3.86838036613121
H         5.32907985305985    3.08625079935855    3.73288540605804
H         4.62766617434142    1.95038005551992    4.90241463719344

