52
CSD_code = VONMUI | q = 0 | S = 0 | Stoichiometry = C26H19NO3PReS | MND = 6
Re        9.61044956232193   12.55973421323037    1.24292020571137
P         9.65284300412858   11.82354745946340    3.57924372504538
C        10.64516411168889   12.83289645043826    4.73222792166226
C        11.85115263551431   13.32902603996965    4.24477052375602
C        12.68741142231465   14.06055896159186    5.06647823212093
C        12.32457404148627   14.30503616157085    6.38138055458512
C        11.12688889603999   13.81215845481779    6.87142651113462
C        10.28842370371921   13.07451127257119    6.05433144083687
C        10.35442174296173   10.17811733754320    3.92618288898948
C        10.77431027286017    9.34665453850706    2.89602089391251
C        11.31036903501916    8.10347273200274    3.18354591496001
H        11.63252211468048    7.46130468434760    2.37752154137750
C        11.43002915896669    7.68622591235029    4.49776330374174
C        11.01249736881437    8.51403943362799    5.52913982485848
C        10.47872848548047    9.75651817036230    5.24854125267413
H        10.15636230287079   10.40212568692732    6.05397798886177
C         8.02514779805297   11.74859658110580    4.37921369253449
C         7.33955045463581   10.54656121087192    4.51704332524139
C         6.05252908665587   10.54376720169855    5.02435489501831
C         5.44277490223171   11.73342366915549    5.38622834626825
C         6.11847072915932   12.93454307757512    5.23765604126017
C         7.40239987963559   12.94561844740334    4.72777962935999
S         8.07625827458157   10.50163446690762    1.10707559589302
N         7.51777186909821   12.95940848400018    1.59372001037842
C         6.95170991815171   11.73860167899507    1.49244655513912
C         5.58064122507077   11.54432248603303    1.69073074915039
C         4.79898892357864   12.63734154562560    1.97436192928330
C         5.38914303076851   13.90024411768095    2.05312025973008
C         6.74883424961623   14.01121557113153    1.85877352435464
C         9.28910807785239   12.84035282426973   -0.66201208360910
O         9.04219696628873   12.93262835341011   -1.77243569445526
C        11.40076114553647   11.87485114937425    0.87991818934014
O        12.44156784407452   11.45187670668557    0.64208781016438
C        10.24569210231943   14.37106077171658    1.58800834031703
O        10.56851814946440   15.45078255296222    1.81383912750880
H        12.11984466549023   13.14070917058490    3.21098970606351
H        13.61939687385753   14.44477990590127    4.68005152233723
H        12.97270913316331   14.88237963334844    7.02370916737104
H        10.84146959178955   14.00249180093460    7.89604621121962
H         9.35247766966030   12.70073192637177    6.44760807152567
H        10.66787996976276    9.66283326151459    1.86689556645573
H        11.84754723560519    6.71575162999175    4.72181146224397
H        11.10480548277749    8.18925121456769    6.55546036356492
H         7.81001895033690    9.62036761728117    4.21601920128361
H         5.52159643652709    9.60912325852558    5.13022029564793
H         4.43671211712611   11.72666271316356    5.77876045190343
H         5.64023948726498   13.86382206622263    5.51098455240149
H         7.93323705689087   13.88045555484632    4.59282984639421
H         5.17583934682447   10.54801233460258    1.61096677691044
H         4.79855414560446   14.77708686818010    2.26193335415007
H         7.25305400305496   14.96845341341458    1.91043956246259
H         3.73650534865094   12.52352922463952    2.12999092096118

