50
CSD_code = VONPEV | q = 0 | S = 0 | Stoichiometry = C17H22CdN8O2 | MND = 6
C         6.46768947951917    3.45130545633402    6.65192692596743
H         6.55432450853918    2.38790320313856    6.89484111724555
H         7.48462595554243    3.87653497386539    6.59600401552242
C         5.82886050446942    3.57895699189613    5.26682087136443
H         6.54725527698698    3.18205955175517    4.54588196435049
H         5.65037325003323    4.62591010517020    5.01336443692498
C         4.51933086149092    2.79768950998625    5.09521502787627
H         4.26713756006812    2.74239533508742    4.02319328040684
H         4.66478640403352    1.77665773234052    5.46972162662323
C         2.39671384682017    3.80893783267351    5.23528214201635
H         2.29234607453185    3.59647986032668    4.15938225396888
C         1.30688439087494    4.52434107648993    5.82041201519285
C         1.35971772680703    5.10760167690759    7.12887126357940
C         0.20644991297959    5.81946671335023    7.55780650659154
H         0.24284126638610    6.27208192062056    8.53996607300815
C        -0.91038665047218    5.94201360170795    6.77584395552722
H        -1.76783337721011    6.48835526604217    7.14330427854035
C        -0.95015832347307    5.36937865765569    5.50223057500390
H        -1.83196844261694    5.47054235817900    4.88871761513294
C         0.14702885424815    4.68863027727255    5.04251855055927
H         0.12857196931075    4.24751605946619    4.05449634709598
C         3.19367921429552    0.38484104431215    8.29745716613013
C         1.79019945872870    0.70027529801475    8.33376611268582
C         0.16600204550630    2.29286826143984    8.40929207362429
H        -0.09794719085029    3.34169997211439    8.45448624327612
C        -0.80253985274454    1.29999214348964    8.36026029535969
H        -1.85724387210694    1.53442773187313    8.36566030246426
C         0.79791160188390   -0.28973216672729    8.29583458339961
H         1.06885746728819   -1.33478107881038    8.25436146887989
C         5.71869283145438    5.54171447535698    7.60576882154263
H         5.27325134218176    5.98841491805498    8.49440309713962
H         5.10727261963883    5.82221639337343    6.75006351302681
H         6.73300279599798    5.94551675327049    7.47428462186973
C         6.43900749750128    3.75630503568666    9.00447268221645
H         5.90210287949803    4.18818433897049    9.84954416699479
H         7.46736589798134    4.14383453733503    8.99728331578134
H         6.47090856030959    2.67376618988448    9.12254387060201
N         5.74263950453436    4.08934621890478    7.75954032240800
N         3.45793473454267    3.42266751101328    5.84078704112631
N         4.14622104398109    1.34135632696636    8.29733960344496
N         5.29096158671124    0.68769428763393    8.21406231427090
N         5.05339778210752   -0.58437796660946    8.17599803658873
N         3.76598661627108   -0.81874554374988    8.22427088249417
N         1.46137484263568    1.99999356941484    8.39461616026712
N        -0.48311427775090    0.01260178899347    8.30701203841497
O         2.38369734757260    5.04796757013866    7.90575336483705
O         3.26758770567736    4.17400561553127   10.27008457247015
H         2.58740005450426    3.68538113798408   10.74530108565381
H         2.79068174956906    4.80455506268755    9.69465458300135
Cd        3.60711696418896    3.31165241317365    7.98009681753119

