21
CSD_code = VONPAR | q = 0 | S = 0 | Stoichiometry = C7H6Cl2N2O3Ru | MND = 6
C         2.36751433834096   14.45588747211665    3.34503293873325
O         0.31742574929223   13.20789404828321    0.46119282036516
O         2.08775757133459   17.61070967696433    1.39067215689224
O         2.36302103607268   14.23679356159211    4.45440311851919
H         3.55872722536721   12.63414562799416   -0.90567691314196
H         5.40026108932654   13.38072348621116   -3.96490599621692
H         6.49572154941929   12.79335534081720   -2.69880833099717
H         4.90935692842064   12.03206030400266   -2.91650067054899
H         4.37164501129636   16.70593272651289   -0.48738677187634
H         5.86157409342277   15.71154915933760   -2.56133593281056
Ru        2.72167614350400   14.67610303781958    1.51126149938036
Cl        3.52036738303428   12.46314749336477    1.79220725339586
Cl        4.76513415131484   15.51830327099600    2.34859981597208
N         3.66834103168364   14.69093638486459   -0.36698110381577
N         4.86483359288947   13.89933649224457   -2.02285776087020
C         3.96677122215083   13.61484706375332   -1.07181195862104
C         1.19153746935086   13.82785963833765    0.84299504916389
C         2.26345792240281   16.48769233621667    1.39580224112332
C         5.15783990055233   15.22654945687164   -1.91738225527196
C         5.44986297633850   12.97564319342505   -2.95368247337054
C         4.41047361448650   15.70983022829162   -0.88543672599825

