67
CSD_code = VONSAV | q = 0 | S = 0 | Stoichiometry = C22H35Cl2N2O2PRuS2 | MND = 6
Ru        6.63142274143142    6.98253502570513    4.06967793936350
Cl        5.96014064665298    5.10746663205243    5.34032941552349
Cl        4.61927304134614    6.95866812244071    2.85213780994387
S         7.21835764640528    5.40136492909534    2.59271127304895
S         7.30649545660265    8.72698915967042    2.75973302720919
P         8.40321351100036    7.33873237948131    5.50134720929775
O         7.71339589379402    5.89776095903399    1.31215196548370
O         7.49996912492743    9.93920469990764    3.56387091175098
N         7.67329774050642    9.73796389590125    6.91888268572160
N         6.17187422430888    8.43603108602852    5.58591859763859
C         7.06404040200190   11.04926051678733    6.86839248340918
H         6.51814100269313   11.16517841133508    5.93652422686507
H         7.85617375541885   11.80194314273494    6.89381192844981
H         6.40049457461270   11.22485625559887    7.72000934139510
C         8.81419668000900    9.63702985256099    7.79462665489654
H         9.30050941925656    8.67205725146251    7.67366671041298
H         8.48696846318202    9.73139193955938    8.83474725504948
H         9.53851827250804   10.42973340892441    7.58761280630433
C         7.31977461806310    8.71957386002313    6.10940215195640
C         4.89656812336610    9.03325191527604    5.92090642273623
H         5.00512183356214    9.66914843380841    6.80895233765423
C         3.93232824699295    7.89228414578193    6.25243780132893
H         2.93257656719629    8.28594688335490    6.41324766903271
H         4.25328375426360    7.36149425363783    7.14637047700030
H         3.90444530748728    7.18827793960927    5.42216057150173
C         4.36026038316976    9.84954116977226    4.74347965646988
H         3.48615007809082   10.41752252166156    5.05165346783848
H         4.07507284730564    9.16852384336648    3.94482075958706
H         5.11910789351055   10.53197528307303    4.36460361956695
C        10.01607937123834    8.04102509581485    5.03622469262627
C        10.22972644493799    9.40990173528716    4.89954998146254
H         9.42582595139327   10.10141816832266    5.09418366569051
C        11.45319515278757    9.87693826250423    4.45257331612412
H        11.61365322866888   10.94008045057579    4.34996407697661
C        12.46614195361539    8.99052572465363    4.12481170369576
H        13.41947623028640    9.36084238027279    3.77875814374217
C        12.24572136581452    7.62547227371214    4.21741479747304
H        13.02290699834645    6.93022048165641    3.93580415113433
C        11.02400282844318    7.15271443641872    4.65933329281768
H        10.83845278992808    6.08712744576882    4.70497676786623
C         8.70343772196152    6.43286185072127    7.06119421355274
C         9.95775764759576    6.02519277628588    7.50336705013574
H        10.84691929443284    6.26778642529424    6.94051475433338
C        10.07634336509267    5.31871580321210    8.68786849582900
H        11.05383694950413    5.00488504554454    9.02412360337891
C         8.95261863531977    5.01174786341482    9.43578034917362
H         9.05198450352885    4.45160142531265   10.35357924950681
C         7.70275867202156    5.42560853260869    9.00377406278956
H         6.82312755488143    5.18962875540833    9.58310803286650
C         7.57540047101516    6.13402315719578    7.82469172657871
H         6.60069975574324    6.44073634551147    7.47434482586830
C         8.51750082606307    4.30467990042024    3.25314393897058
H         8.68463955752951    3.48291126011898    2.56702657003616
H         8.17416642836858    3.95657583229046    4.22240246569865
H         9.41870052318143    4.90121921861867    3.35190778288088
C         6.00513505933269    4.11096033407547    2.20540486456119
H         6.46436683914041    3.42436125410280    1.50412429788050
H         5.14300764348517    4.59870457375851    1.76089415587669
H         5.72538528209988    3.63094776031601    3.13684828910800
C         8.84200449440766    8.57042073684404    1.78768723240462
H         9.01792848104638    9.52104478338089    1.29873699181703
H         8.70466965589135    7.76467385331540    1.07758070467471
H         9.65787389944200    8.34337418848021    2.46425849381721
C         6.25002992037762    9.19676799508122    1.36040063975289
H         6.66097416430245   10.09121355750351    0.90701643889214
H         5.24832918055354    9.37508138440278    1.73550190812134
H         6.24334890832138    8.35680101416020    0.67513709552301

