79
CSD_code = VONTEA | q = 0 | S = 0 | Stoichiometry = C40H28N8S2Zn | MND = 6
Zn        6.93442548263418    0.70684820618397   11.77937882078186
S         6.19929533619458    4.79944842218735   13.23361271990161
S         6.37494134999615   -3.58577750659603   12.62222473879282
N         5.19621393834428    1.63450293577094   10.92021727027566
N         7.71409041673082    2.20875006762126   10.16772756057281
N         8.93715708146273    2.17330181537256    9.72599931107788
N         7.70980469422542   -0.32335042480826    8.83402940036855
N         7.98674351766926   -0.50606754999717   10.09232429446966
N         8.64830382586631   -0.22783206065174   12.68203905625178
N         6.95134470003747    2.15703763070165   13.01487328733958
N         5.98714591373600   -0.88713092626587   12.21836680818358
C         6.75730002343140    2.90477529343284    9.66957486246557
C         9.31686267632820    1.42979342592199    8.75071982136201
C         8.28545266335351    0.56158406491864    8.10368290068486
C         8.95403555334221   -1.21514379543848   10.55028863013394
C         6.62848798881255    3.28594263812712   13.11020253402992
C         6.15345401268331   -2.04007062589050   12.39399317339655
C         5.43996994613460    2.78513724630704   10.29081599578405
C         4.49510649538713    3.80625116428895   10.21933470220241
H         4.73925064851242    4.73621633852863    9.73035153870311
C         3.26529567480927    3.61470298526395   10.82340107442958
H         2.52119424897494    4.39656365827409   10.80519251662931
C         3.01455855497412    2.40917910815406   11.46092880313642
H         2.06796523614907    2.21957555909114   11.94112781542940
C         4.01515629244684    1.45050582974557   11.48690271546436
H         3.88001247520745    0.49825379583935   11.97933201549715
C        10.72368823155514    1.31824491124126    8.40563179645344
C        11.67747950209170    2.07466598824141    9.09002881643594
H        11.34616633708839    2.74887032687619    9.86445428340012
C        13.01641760021414    1.94752535497351    8.78182279180449
H        13.74905017654461    2.53435026180502    9.31570619837811
C        13.42331034680813    1.06765491623948    7.78980179551214
H        14.47173738012673    0.96967418234165    7.55103571208481
C        12.48321803393177    0.31328346151288    7.10700694623660
H        12.79657566221592   -0.37502326990053    6.33653544793476
C        11.14106417756993    0.43308148988792    7.41018471197175
H        10.41374409665617   -0.16415103934162    6.88006266364768
C         7.82067308434162    0.82449256252642    6.75212179339924
C         8.41667180867984    1.82041885665857    5.97668132134344
H         9.24333148897236    2.39119550239580    6.37324093815091
C         7.94706083800819    2.08279672887475    4.70455602310782
H         8.41458191465166    2.85494672056748    4.11226141541468
C         6.87938055272534    1.36426033702664    4.19204174268835
H         6.51336170988629    1.57489308635472    3.19833135430458
C         6.27975031375517    0.37558182780963    4.95792051330641
H         5.44550338754283   -0.18308105557907    4.56029553157430
C         6.74494729358519    0.10425587442240    6.22826830010075
H         6.28372290001929   -0.65613939470202    6.83918880226257
C         9.12096652736079   -1.27301627024421   12.00090349279945
C         9.74322863693922   -2.34864308328391   12.63034925855443
H        10.08267786667090   -3.19265710868928   12.05075484794347
C         9.87218448767223   -2.32616146487910   14.00769422312533
H        10.32801613911369   -3.15608586543087   14.52611434301856
C         9.39375632120869   -1.22795337700553   14.70587480441797
H         9.47759046396177   -1.17094609419662   15.77932700253814
C         8.78404474966947   -0.20436769963351   13.99760167240989
H         8.38166808718972    0.66914424601299   14.49013030098110
C         6.91941769393420    3.74685510476284    8.47196038011790
C         5.96343912866246    3.69695602502653    7.45817752921453
H         5.10176348384373    3.05485501082581    7.56844501760365
C         6.13288959564951    4.44201776070010    6.30729404835656
H         5.39211707536524    4.39099322127324    5.52354522604934
C         7.24835412972003    5.25017820309859    6.15839676005152
H         7.37549133348708    5.83537126266638    5.26002599073831
C         8.19943087053325    5.30706909247283    7.16352579335103
H         9.06775778639944    5.93930918798791    7.05290527527047
C         8.04303546730092    4.55365453404453    8.31205636876440
H         8.77919370138929    4.60369766027917    9.10065365950117
C         9.92443530725969   -1.90193769567750    9.68081417847680
C        11.28729918609467   -1.81646964617348    9.96222044809271
H        11.61988603148107   -1.25973009051433   10.82615626339375
C        12.20774356757695   -2.41598938118580    9.12438249428062
H        13.26171733069725   -2.33800647172373    9.34508324113684
C        11.78115994618497   -3.11333658879127    8.00577982419572
H        12.50248123752833   -3.58566434360808    7.35590827925397
C        10.42843626473397   -3.20460158687958    7.72273871320060
H        10.09202406493590   -3.75083171026202    6.85415971728055
C         9.50266215695354   -2.59562949065039    8.54934062806380
H         8.44702577611199   -2.67306826663650    8.33495895085465

