33
CSD_code = VONVUQ | q = 0 | S = 0 | Stoichiometry = C14H13CoOS4 | MND = 7
Co        1.53765472223407    0.94181012546340   11.08842096298697
S         2.72336321166254    2.64683448978752   10.59723384101873
S         2.21324055851559   -0.05186383466521    9.32714115653368
S         2.97858816931197    2.71151465929930    5.85162047250913
S         5.30087439533124    2.64960567593924    4.02659043711500
O         3.21088087719736    4.20874698227463    3.71358178970527
C         3.52276620813866    2.25546302881116    9.12565365191641
C         3.28704288123736    1.04820951338318    8.55493320345265
C         3.94996074031895    0.59370059885719    7.28925627471703
C         4.45627581777352    1.78702326859157    6.48338047083670
C         5.27270074973738    2.71389182711426    7.39472663833858
C         4.41417588170957    3.29352264401134    8.51685134285898
C         3.71594552752223    3.37478245321272    4.39537914802031
C         5.27518370188807    1.39873334031889    5.28449351035528
C         5.98479210973459    0.29126424605686    5.13031936067546
C         1.43463612666902    0.24781379127359   13.04514923496447
C         0.83381868319623    1.52793101156701   12.95983838928693
C        -0.24036791866027    1.45023056104668   12.04286425476812
C        -0.31258787599809    0.11379516105498   11.56635658706852
C         0.71905556421804   -0.62680591707599   12.18604030012204
H         4.79090412045616   -0.05304450191536    7.55456215032637
H         3.24819934826175    0.00169697507128    6.69861900156788
H         6.09123845403879    2.12483476154743    7.81520456059036
H         5.70804298223596    3.52655295278666    6.80960238315404
H         3.78382854702543    4.09943064598072    8.12821704911631
H         5.05053778465825    3.72797353270063    9.29008004126643
H         6.01598462479937   -0.48592374863886    5.87159382748247
H         6.57382738461080    0.13710661068157    4.24423284233915
H         2.21450682245162   -0.03948647120940   13.73255743567039
H         1.09463398059739    2.38882735957603   13.55373050860963
H        -0.94920624991369    2.23545817253758   11.83359562082908
H        -1.08213665782624   -0.28954971636536   10.92801788108376
H         0.87363872686576   -1.68978019908100   12.09475567070867

