42
CSD_code = VONVEB | q = 0 | S = 0 | Stoichiometry = C18H17N3NiO2S | MND = 4
Ni        2.37009272082224    5.70433736448877    0.08908341323735
S         3.29756171424902    9.75321445479835   -1.17878639265036
O         3.30834736598483    5.13409368391380    1.58615438924327
N         3.21792159469057    7.36109138407575    0.12891729852664
O         1.50404898058694    4.10385713144106    0.01314787288023
C         4.17647892607628    5.73383613413989    2.29310668930299
N         1.48664627983874    6.33706478465780   -1.39116002773768
C         0.59210442342654    5.76202622170961   -2.17322277604314
N         1.85505921933441    7.61456379459712   -1.71031831736447
C         0.11513797261751    4.44303192047394   -1.91995082946857
C         4.63502441280620    7.08108307091982    2.04237389979623
C         4.75217917325649    5.05642772550643    3.41009162521216
H         4.41069685067276    4.04975052940994    3.59710271533731
C         5.68663046793503    5.65214533376084    4.20148614504643
H         6.10267093434559    5.11372561388453    5.04084477085035
C         2.73933042600912    8.11612732518506   -0.91183469492651
C         4.12351204687296    7.81576196735690    0.96932427462356
H         4.49506605113266    8.82959409664858    0.81484731668894
C         5.61027114897404    7.65842960443640    2.89330790365143
H         5.93410573824524    8.66829631387477    2.68380025218945
C         0.61179366565837    3.68507073092377   -0.80636896963769
C        -0.86460749113386    1.85385191260726   -1.42669263966193
H        -1.25057710078804    0.86162829666123   -1.24389363969360
C         6.12569672541983    6.96705510801960    3.94679402154086
H         6.86659058194620    7.41543448972391    4.59055051192710
C         0.08260363095168    2.38240279925067   -0.59924695182375
H         0.46743979597897    1.83262995366642    0.24565849163522
C        -1.34369370043606    2.59348412769480   -2.51664552838721
H        -2.09217091130968    2.16761723921186   -3.16725790309221
C        -0.86256253030803    3.85109634831279   -2.75095101926552
H        -1.24541813445386    4.40413119724014   -3.59365526683131
C         2.28074895039258   10.19123122492418   -2.63402560428977
H         2.55259429027079    9.50024718755977   -3.43081825977206
H         1.24118354757875   10.03118071941756   -2.35157158588137
C         2.54445972342501   11.63223739756170   -3.02313394220049
H         1.93427366070630   11.89684053329648   -3.88390388249876
H         3.59167954003694   11.77428535785582   -3.28058845199957
H         2.29769655618686   12.30126319076088   -2.20176099918700
C         0.06279784915555    6.52347955869553   -3.35421623540398
H         0.54556981394729    7.49394104878992   -3.40864201940531
H        -1.01177750560597    6.66436889830466   -3.25691142481279
H         0.26079259450223    5.97296422423821   -4.27153422965323

