51
CSD_code = VONVOK | q = 0 | S = 0 | Stoichiometry = C22H18N6NiO4 | MND = 6
Ni        7.87869664166625    6.18927221362893   17.29815755667664
O         8.55759131526849    4.55641325841682   16.60047329577090
O         9.96841142144914    3.18984236189732   15.63282113027259
O         7.66829006375350    5.36796305469180   19.01012911867811
O         7.32388630127840    5.51526257271536   21.18626203519242
N         9.98714408817297    6.82102113086188   18.28052278378810
N        10.36526785756901    6.16032107263373   20.34903359786596
N         7.04735716726616    7.82777174474639   17.94010830057630
N         6.75920071192179    9.93399762802741   18.46381025625848
N         5.94309093225339    5.53082737759334   16.08082575385575
N         8.26872043516328    6.85414907928422   15.55271915245560
C         9.85568757977691    7.11813037547578   19.55646127921322
C        10.84588162443046    5.17896091183193   19.53238710028914
C        10.62285166174983    5.59883528100659   18.24889214524364
C        10.94562877266176    4.90440928113107   16.98103771727954
C         9.72952225947072    4.13886586285100   16.36147590198263
C         7.33118885105649    9.06809477317273   17.61002705818436
C         6.07367030653086    9.19966900973489   19.39318316482160
C         6.25224537600700    7.88526299403455   19.05595778717829
C         5.78289153480188    6.66685987400168   19.74055159368511
C         7.03970597293747    5.76341714009353   20.02716446053971
C         4.90541199855114    4.77879872488693   16.35754049635992
C         4.20711234220425    4.03737241218723   15.39556751867518
C         4.59899914525849    4.12148434550194   14.08379373152957
C         5.71325882172138    4.91229898934671   13.75421144075868
C         6.19360995276737    5.04476843631164   12.42089110879735
C         7.29415306112604    5.78411706499769   12.14876611625330
C         8.02455096323611    6.42412493678783   13.19063073392442
C         9.21273121604362    7.13109275026958   12.94790588554370
C         9.88836897362387    7.68279471975309   14.00832755101105
C         9.38286235573320    7.51339091620665   15.29922484260550
C         7.57646768662852    6.31946486699797   14.52691865702510
C         6.37626916548577    5.57797239853149   14.80852484280205
H        10.25837697451429    6.09494748290639   21.34796538780556
H         6.82724978478924   10.93834391213688   18.43706324634678
H         9.41073091295678    8.01837922741725   19.93719738600779
H        11.28781109460372    4.28127252259810   19.91064259836772
H        11.26835123711543    5.62061090741482   16.22039850559879
H        11.73834932053105    4.17200325580683   17.13234339635048
H         7.93224737625959    9.37477237702799   16.77723483497722
H         5.52804508587034    9.64970650945409   20.19529250738238
H         5.27226794098731    6.90699057508151   20.67175200940086
H         5.12867834746308    6.08888272083806   19.08720369058132
H         4.59245561686960    4.74678445666024   17.39245983951563
H         3.37128366980971    3.42293111053959   15.69157923627617
H         4.07622499332994    3.58593905736423   13.30405475340112
H         5.66317761339884    4.52957574230653   11.63332058353045
H         7.66265132183632    5.88125706536509   11.13816749733877
H         9.58613947938692    7.21680477861040   11.93795445157712
H        10.81026520220767    8.22410645613056   13.86355268614992
H         9.91406747051188    7.90126428273272   16.16041327428870

