36
CSD_code = VONXOL | q = 0 | S = 0 | Stoichiometry = C15H19MoN | MND = 11
Mo        8.10390094956840    3.18154532172747    1.50563327730105
N        10.52932848216252    3.18149933184814   -0.48880875120013
C         9.56544169119708    3.18082178744752    0.20618314846533
C        11.01612993559602    3.18150434577216   -1.83036487420056
C        11.87291075229102    1.92422712101375   -2.00730456677524
C         9.84823097569187    3.18151031670975   -2.82309480236890
C         7.90681603341656    0.99414745252049    0.71333906220248
C         8.86550874172907    0.99387667079275    1.78503002681842
C         8.21112189323778    1.40063307072961    2.95917433985382
C         6.85616659164221    1.67910970791619    2.62054593557324
C         6.66825913816425    1.40404447327384    1.23534332614613
H        12.29447860784614    1.89679013926028   -3.00876692143276
H        12.68364790311959    1.91755864595002   -1.28289577013210
H        11.26744497008248    1.03324118648694   -1.85558600500073
H        10.22121524561299    3.18151888203518   -3.84430258891286
H         9.22889582441883    2.30042264911600   -2.67225303784852
H         8.07503268031929    0.56421383851107   -0.26801566999518
H         9.86368232946957    0.57431621260432    1.72202492405491
H         8.62646107705549    1.39318980036450    3.95472049921382
H         6.05440199515856    1.81856174772669    3.33703595677185
H         5.72302312820172    1.39284810512411    0.71466087521471
C         7.90678297834634    5.36894807972274    0.71336862176310
C         8.86547898134138    5.36922317640260    1.78506664489458
C         8.21111161806370    4.96242033333038    2.95920060846150
C         6.85615691131165    4.68392948612353    2.62055966815120
C         6.66823817335558    4.95900582342665    1.23535414887676
C        11.87289085766130    4.43879645611750   -2.00731677439074
H         9.22889926986995    4.06259887728428   -2.67223957241816
H         8.07500807704079    5.79884313494670   -0.26799943202900
H         9.86366497521569    5.78874821203288    1.72205461395623
H         8.62645951613744    4.96982592244177    3.95474324004827
H         6.05439574102183    4.54443756944897    3.33704551710667
H         5.72300677499046    4.97016291009136    0.71466213159556
H        12.29445967995826    4.46622631376769   -3.00878015701786
H        12.68363136751204    4.44547523112535   -1.28291120440741
H        11.26741613219216    5.32977766680665   -1.85560643833928

