63
CSD_code = VONYEE | q = 0 | S = 0 | Stoichiometry = C20H32N8NiSe2 | MND = 6
Se       -3.76169829527508    2.34299719564115   11.37667386196686
Ni       -3.14228246667037    0.54600053461142    7.21529506167828
N        -2.10406533982297   -1.32051955558075    8.09164948256243
N        -2.34348768573123   -0.70051673638987    5.53593635885665
N        -4.64036446715350   -1.29400813549944    5.90451238577076
N        -3.67454727334018    1.90956713265596    5.16368260578386
N        -4.75265637981516   -0.40059575034052    6.90464006262104
N        -1.05438356048098   -1.62122478034383    7.30701240585431
C        -5.58764577612160    3.15947382635473    4.02959441539688
H        -6.65156606901616    3.34105596577049    4.16008153131338
H        -5.44771721373391    2.63346172573144    3.08744325993295
H        -5.08935334224314    4.12248321386521    3.96897487088948
N        -3.84230601226151    1.52860126962146    8.60997437556833
C        -2.22531676761164    0.08450976100791    4.30676664460536
H        -2.08527890219735   -0.57844620612214    3.43754047396597
H        -1.34067416796303    0.71577057694625    4.39869629517552
C        -1.06078415598110   -1.28952092890994    5.90418547071715
H        -0.85216723079570   -2.19836004464356    5.30876977572820
H        -0.25953894858384   -0.56666896803642    5.70813756737227
C        -5.08172292536066    2.33207609182649    5.21476039665993
H        -5.21411678833256    2.89827835832196    6.13691666470228
H        -5.69983863229622    1.43377405429859    5.28889551630358
C        -0.02974067397426   -2.13730171256496    8.02416920888310
C        -3.44445155575078    0.97736277619328    4.06133593581339
H        -3.27588093710689    1.50456965235340    3.10839407638254
H        -4.33381240460209    0.35183785643752    3.94073590592050
C        -5.84208746894482   -1.82454487029245    5.58337912098914
C        -3.35579449586556   -1.74503880527394    5.43523959386976
H        -3.46901980172108   -2.09243931225929    4.39524301015273
H        -3.04846313009283   -2.59549898803395    6.05986342843924
C        -1.76550602117446   -1.66391510515294    9.32584615143857
C        -6.04051305248192   -0.33412225176078    7.22256179302531
C        -3.70975629145940    1.83351975661214    9.73999527168602
C        -6.76344982597035   -1.21883296380891    6.40752817816067
H        -7.82029744105746   -1.38739375267779    6.42697441610809
C        -2.70026541388460   -1.47613837649421   10.46252892891715
H        -3.65957316121894   -1.12918657584699   10.08519108025338
H        -2.30798888851170   -0.72485660037969   11.14589884146919
H        -2.83178289807938   -2.40482719771973   11.01501823485029
C        -6.02586105094816   -2.85628751164067    4.53143311078790
H        -5.68228328807293   -2.49701742851361    3.56072126804347
H        -7.08035298217652   -3.10392927416939    4.45149652905744
H        -5.47455422430739   -3.76445524862513    4.77498743018408
C        -6.60948534775666    0.53781578365821    8.27871068527092
H        -6.28971077475644    1.56752438190982    8.14085578771761
H        -6.25790257077148    0.22193713280153    9.25934715534441
H        -7.69484865555966    0.48322089652536    8.25580006371004
C        -2.77067384232301    3.06553515884320    5.04272412460612
H        -2.91716986321656    3.56508273816632    4.07235273576682
H        -1.74656574917615    2.69016914468266    5.06636030241739
C        -2.92769341774036    4.06816082605176    6.17741558599779
H        -2.06381061696599    4.72722084326478    6.19439909786593
H        -2.97453957288922    3.53833712902507    7.12706310062772
H        -3.81959703377192    4.67867500915968    6.06417493596062
C        -0.45145414625655    1.48443164207966    7.14145792308820
N        -1.58285677722728    1.38500604176368    7.42475911073325
Se        1.19932330147888    1.63145764636389    6.65357875019207
C         1.27106846990490   -2.48793228182092    7.40658348888852
H         1.75058783777538   -1.58871291953644    7.01697790238196
H         1.14401902446530   -3.18958051337100    6.58179379678503
H         1.92410131492946   -2.93258736535316    8.15126815841972
C        -0.46586751586155   -2.19554437066315    9.33022962671070
H         0.08202334390188   -2.55440959072711   10.17676666965038

