79
CSD_code = VOPCIP | q = 0 | S = 0 | Stoichiometry = C42H34FeP2 | MND = 8
Fe       -0.22262201866519    5.17044208396658   15.36959431051215
P         1.47709780814991    4.80440253288892   16.58740716123584
P         0.26516845882278    3.36079922026881   14.37069383218047
C         2.37821612360219    3.29435636452035   16.07779361160744
C         3.54324015684336    2.82030348537954   16.66487557006903
H         3.97264940844702    3.33864948775676   17.51092064152971
C         4.14556143191550    1.67926860393534   16.16006535322320
H         5.05283505216542    1.30575873294195   16.61262139058513
C         3.59034799827499    1.01318254291699   15.07808666196070
H         4.06691752627500    0.12308198443635   14.69330229327286
C         2.42750369636900    1.48162790727180   14.48832584785866
H         1.99143879159721    0.96306185857129   13.64564055663489
C         1.82660543873463    2.63116293595335   14.98264049438471
C         1.27099779117708    4.55056987579749   18.37653302788506
C         1.00286230476449    3.28190125130139   18.88527083831439
H         1.08192823777551    2.42194452767373   18.23331016240999
C         0.63766975592238    3.12663617523266   20.20927690551251
H         0.44162935435687    2.13866050249345   20.60067536309356
C         0.51318329644809    4.23511616371625   21.03249173252414
H         0.22435618196091    4.11242843373234   22.06615643902071
C         0.74779883819612    5.50427150466614   20.52569659413182
H         0.63648911119964    6.36951235016050   21.16399247549324
C         1.11421857981954    5.66303229914373   19.20297184340506
H         1.28772847132622    6.65077286895973   18.79425727278134
C         2.86296136066917    5.99706437596711   16.49874512209252
C         3.80163256733553    6.24426832493745   17.49266768329479
H         3.73267879033935    5.73667830198625   18.44507511940847
C         4.81993172500614    7.15336420829816   17.26308662505279
H         5.54770858702951    7.35060738285534   18.03749017872317
C         4.91078905937610    7.81071172099120   16.04715139728392
H         5.70800252908475    8.51986683261498   15.87716967598432
C         3.98020096176407    7.56066777460312   15.05021844569955
H         4.05284581621312    8.07359156447584   14.10187699274812
C         2.96022652053318    6.65792535567677   15.27818450727016
H         2.20906914799929    6.44031154956753   14.52578574329201
C         0.45609544210077    3.29837351770795   12.56450412567711
C         1.69166656201315    3.54738108261137   11.97307869703121
H         2.56814956589417    3.64333505246723   12.60012967307831
C         1.79442789242216    3.66288416894781   10.59952648198087
H         2.75828185254514    3.83987280958244   10.14398219744391
C         0.66319848156525    3.55787523185268    9.80522357333376
H         0.74553194520929    3.64795275783343    8.73194989381090
C        -0.57640356765734    3.34983816636681   10.38983523607525
H        -1.46051375101862    3.28411946461924    9.77131978888469
C        -0.68198071002531    3.23129974910265   11.76240532161197
H        -1.64672266086795    3.07463061386708   12.22797391671855
C        -0.83681331374269    1.93932876035133   14.72016741288367
C        -1.06656637233451    0.84770763302205   13.89191001431092
H        -0.58586586814510    0.78572256219284   12.92525654207926
C        -1.92461077704974   -0.15645137057947   14.30611439326229
H        -2.10921982423896   -1.00318912975208   13.65997584879506
C        -2.54918273523963   -0.08156093608649   15.54078264867377
H        -3.22311031643625   -0.86705661564684   15.85083467499416
C        -2.30986595975622    0.99825882069875   16.37647954388265
H        -2.79422201131971    1.06355848715477   17.33999064070560
C        -1.45482817812490    2.00086693252150   15.96480200483845
H        -1.25107603259372    2.85973367575719   16.59409671362515
C        -2.19863435198640    5.54024782812018   16.16792864454937
C        -1.27433984667572    6.51998198325086   16.61190680660934
H        -1.22492631420724    6.76307012992308   17.66508248147597
C        -0.49402440333950    7.26662295377726   15.70114520304593
H         0.15494879938553    8.04652191305297   16.07801060949057
C        -0.58882810213137    7.04180035857305   14.31725561303736
H        -0.03077098959963    7.64388764026905   13.61724125825435
C        -1.46377685057853    6.03844243779641   13.86632633506627
H        -1.56275589842744    5.85016767273566   12.80526919986428
C        -2.25779215755905    5.30239352064164   14.77411873586031
H        -2.94148620424595    4.55682553742679   14.38971605981559
C        -3.02284115263476    4.78561478008415   17.11217316593040
C        -2.50309178072962    4.41392847452854   18.35312259367214
H        -1.48936436878925    4.68614952592613   18.60554450740463
C        -3.25285865975832    3.66641870860272   19.23790708737241
H        -2.82689850932267    3.38168079061656   20.18951277151854
C        -4.53960665409063    3.27410653964770   18.90379716153255
H        -5.12680631522497    2.68731866527495   19.59523021226834
C        -5.06737477503538    3.63759446653764   17.67614444554913
H        -6.07096860951655    3.33734242198157   17.41018251342492
C        -4.31819971976312    4.38527734965253   16.78770107402497
H        -4.74654165937009    4.67472378144351   15.83879230655269

