46
CSD_code = VOPDEJ | q = 0 | S = 0 | Stoichiometry = C21H20AuOPS2 | MND = 2
Au       -0.85317909205687    3.01708598284369    1.01714819989597
S        -2.94369655291773    2.08942440350115    1.54177127588092
S        -3.18865738366524   -0.47382904174696    3.01703087347835
C        -2.30459808299569    0.70706072631145    2.31342735142370
O        -0.95397271270685    0.69198602168678    2.27246670693413
C        -0.27296736265492   -0.40688987083460    2.86973401687245
H        -0.66571095849004   -1.33955830187155    2.44840794173566
H        -0.47945565049472   -0.40913058568653    3.94647765617355
C         1.21015322545337   -0.25386851656332    2.58964402117789
H         1.75407329490439   -1.07342229815980    3.04955259265107
H         1.57690643839354    0.68742703214297    2.99261847958989
H         1.39178902837524   -0.26371035790210    1.51806374718925
P         1.11767001978755    4.02648891142602    0.53512571892795
C         1.38699083225363    4.38723767607664   -1.22259793254759
C         2.64275633141102    4.39545408200459   -1.82162892748597
H         3.52207078615704    4.13668494524724   -1.24743633123107
C         2.75873480984992    4.71925835794438   -3.16130768198372
H         3.73270925032439    4.72196987569881   -3.62798157774607
C         1.63287212446067    5.03687229915257   -3.90394363845682
H         1.73130094175848    5.28702515469881   -4.94950081073112
C         0.38124852018250    5.02820076257294   -3.30926180337269
H        -0.49684103051456    5.26973243250027   -3.88887152102962
C         0.25681477698543    4.70166982566316   -1.97205346189470
H        -0.71538563976815    4.67846382775413   -1.49539359056655
C         2.58894724462988    3.10384161355654    1.04298516721500
C         2.92523738267939    1.96400833619333    0.31377888846163
H         2.35374566710132    1.71301828441648   -0.57094197475214
C         3.98222436806628    1.17256367069227    0.71897950602588
H         4.24977017913988    0.29615812511861    0.14764992334834
C         4.69417804741659    1.50005276267871    1.86305547528776
H         5.51860872703969    0.87952339556070    2.17996262755426
C         4.34528745027240    2.61730168632923    2.60363866105249
H         4.89422913835439    2.86524167412728    3.49994339405180
C         3.29131353612408    3.41875186490565    2.20152629283451
H         3.01319599265440    4.28847622270343    2.78108378828788
C         1.31633903221908    5.65734794662549    1.30580142121382
C         0.36099516840666    6.08895523077446    2.21856029700568
H        -0.47925047114924    5.44633642377129    2.45064232712479
C         0.48972138755342    7.32965871674781    2.81776929118849
H        -0.25255985915621    7.66347759486947    3.52696550723933
C         1.56757258796621    8.14030502168321    2.50372723569786
H         1.66696444315706    9.10913126820014    2.96958873370973
C         2.51899643571776    7.71334896080414    1.58920295407812
H         3.35698109196891    8.34906324160880    1.34459523782584
C         2.39746116350870    6.47561457197582    0.98758858681979
H         3.13491537237361    6.13959004306700    0.27190535373745

