26
CSD_code = VOPFIP | q = 0 | S = 0 | Stoichiometry = C11H10Cl2N2Pt | MND = 4
Pt        0.94426646612300    0.38357174710707    6.70633597213755
Cl        1.01178780116566    2.50916573870441    6.05798115957023
Cl        1.45737106493684   -0.24949619946323    4.56304991056600
N         0.76328814141008   -1.45530607007692    7.40653703421833
N         0.71371226126328   -0.18300292882708   10.80650704035233
C         0.61780156235807    0.82393217522080    8.61735558680649
C         0.49802670693762    2.07121080984848    9.22989667738705
H         0.50116316215027    2.95855332573080    8.61487508495024
C         0.37826190333756    2.16315497482340   10.61116918375537
H         0.22645788898548    3.11103499880212   11.10180342478817
C         0.55085221928341    1.02914755149503   11.36913564422456
H         0.60022341159447    1.06793521233278   12.44651506506796
C         1.10188730260341   -1.26813756968735   11.68478378246776
H         1.68764156005695   -2.00180616557255   11.13525869237490
H         0.22729857490404   -1.75108923951257   12.12485929697272
H         1.71427351888724   -0.87173310396513   12.49488002178388
C         0.62147002974399   -0.32212056455034    9.45617843775180
C         0.53197896548542   -1.58301174832682    8.74710623082551
C         0.11527902411371   -2.81373821931136    9.26828037574680
H        -0.18346668386066   -2.90479677472971   10.29802400892153
C         0.02514318785695   -3.91849200581174    8.44693244765875
H        -0.30262055182738   -4.86641771250470    8.84434147826499
C         0.35715238941519   -3.78383364785146    7.10161559791458
H         0.32629587088474   -4.62767766878987    6.43251591497132
C         0.69483954502579   -2.53558619390334    6.62516996116427
H         0.92201467716506   -2.36486072118091    5.57909196935678

