109
CSD_code = VOPPOG | q = 0 | S = 0 | Stoichiometry = C48H56P4Pt | MND = 4
Pt       15.28318312385926   13.04204923968992   10.71130629361377
P        14.77215515153980   11.57209095416825    9.04438624197930
P        15.49930530275357   10.59816942704485   10.68171568605411
P        15.93931764234678   13.45928592423935   12.85664784048499
P        14.83631654451669   15.13078799603625    9.78305129802075
C        17.15426138561136   12.25588963066635    7.91088830389971
H        17.67294410193334   11.47896564798968    8.47321328478389
H        17.02590394881343   13.12720753448612    8.56660492754130
H        17.76536669559332   12.54992374131319    7.05853961664164
C        15.79212939194901   11.74250529850174    7.46995853489440
H        15.30305688754552   12.49341800114967    6.83676224593499
C        15.90433081124450   10.41986455500163    6.72490842276833
H        16.62305344234632   10.50453074948988    5.90947876971110
H        14.94545286207905   10.12481706883881    6.30268632134056
H        16.24183864898118    9.63921651745389    7.40671318281608
C        12.75650910711714    9.73693723173629    8.44172559205193
H        12.97807858465388    9.32808788579721    9.42760935270660
H        13.38834285405516    9.22802177915097    7.71694344304750
H        11.71382094600695    9.52912700325213    8.20066939917372
C        13.01746730212476   11.23735476084364    8.45049734340622
H        12.90554961819293   11.65710093739635    7.44397545715098
C        12.08374292765635   11.94122738935487    9.42606874598188
H        11.03926988017720   11.79658252667835    9.15069833498179
H        12.29265295056975   13.01242825663293    9.45828691790662
H        12.23889525347644   11.53669017009171   10.42759672516478
C        17.33382830941218   12.42108818540198   13.38543575426343
C        18.23637142910790   12.04540993093444   12.39573604122055
H        18.04550322301481   12.35413718858577   11.37201087219770
C        19.33211563487604   11.26771086770761   12.70801534176510
H        20.02725851858337   10.97722000928780   11.93291837722992
C        19.54543138368235   10.84034144081457   14.01447447936053
C        18.63451175005827   11.21183240940723   14.99627667902334
H        18.78476633863563   10.87833480127229   16.01400482612575
C        17.53728914504681   11.99627895486586   14.69184214914227
H        16.83568435492838   12.27023724583689   15.46724152130447
C        20.71843248647540    9.96873070386647   14.34509024886909
H        20.48825181875949    8.93162506627978   14.09919138030527
H        20.95813914945727   10.02051378594455   15.40463302591801
H        21.59361845274711   10.26166493829158   13.76859098327219
C        16.45738498869416   15.11056401714091   13.43732937001705
C        17.74550921795272   15.39870942571723   13.86632321479451
H        18.49146565381766   14.61675266584734   13.89434729937431
C        18.07605025756479   16.68257784613888   14.26342580724654
H        19.08146142243272   16.89005034612497   14.60396178211266
C        17.13825244035414   17.70435574999085   14.23459527996329
C        15.85194908147517   17.41279092182593   13.78960242485621
H        15.11091121149015   18.19916269001012   13.75395893816635
C        15.51627581329360   16.13676235536962   13.39353077521127
H        14.51332204195864   15.92223045330232   13.04691006889569
C        17.48243476667408   19.09590630387218   14.66976546142482
H        18.52520816523780   19.16729585716483   14.96892634257503
H        16.85935901508899   19.39307723296691   15.51286547295009
H        17.30058969579596   19.79962333224212   13.85886812286522
C        14.63076931553656   13.07618596849461   14.06079754353480
C        14.57098462816114   13.62996573982120   15.33513959617272
H        15.31961937014037   14.34342830141146   15.65266290321007
C        13.54641252689657   13.27608572431907   16.19313886845218
H        13.50837178988529   13.70915901952768   17.18348705311948
C        12.56389679506147   12.37302072913746   15.80383098605923
C        12.62576196793659   11.83018640912533   14.52459660656525
H        11.86605711502661   11.13021885880253   14.20616485035761
C        13.64568380345875   12.17859779364908   13.66243971522132
H        13.70304365983960   11.75664053803654   12.66191335991819
C        11.47016511651419   11.97467790666853   16.74726676134518
H        11.71577460837797   11.02152887775919   17.21692132881111
H        10.52758755697190   11.85133073107499   16.21793589826619
H        11.34149575075698   12.71591258510713   17.53264011082601
C        16.03727833196214   16.41689240675632   10.25275836098651
C        17.33037754247534   15.97230184757341   10.51390416714480
H        17.53759637585139   14.90607191818196   10.46415022920889
C        18.32597295930643   16.86405187976180   10.84933889352345
H        19.32669257944927   16.50767138886988   11.04826548616523
C        18.05101724374801   18.22455860927224   10.94525446830903
C        16.75550937964800   18.66026931091081   10.70230872504538
H        16.52396050349235   19.71370878035496   10.78261427226350
C        15.75415798575805   17.77084814743857   10.35659561045295
H        14.75158557352146   18.13241320699104   10.18057628797025
C        19.14159389751847   19.18397919536832   11.30994784345551
H        18.76367653891271   20.20098428911181   11.37928650016404
H        19.93252602120342   19.15899104570428   10.56085423369569
H        19.58146962530760   18.90633056059098   12.26643488828851
C        13.22010265588683   15.82264023408619   10.24157219324765
C        12.57775922641237   15.22900899147045   11.32294002723680
H        13.05218788720362   14.38025328474703   11.81162157083951
C        11.35128759978350   15.69435773932762   11.75483248595188
H        10.86659342872536   15.22500380402386   12.59937651363090
C        10.73393632525302   16.75754913196998   11.10646525682374
C        11.36876745064006   17.33121104079042   10.00866692969779
H        10.88913192859590   18.14852625590106    9.48764630494039
C        12.59690708181176   16.87211755941452    9.57357940368973
H        13.06614746674688   17.31617585483172    8.70566479266305
C         9.39396051389073   17.25744028963977   11.55154182145434
H         8.60983520514985   16.82071882793240   10.93197488816861
H         9.33203486503630   18.33939006569834   11.45402593802279
H         9.20048556526810   16.98284347792488   12.58559589054325
C        14.83270485360749   15.30284087856018    7.97146550593764
C        15.97447362323399   15.68805674837031    7.27757346447909
H        16.85560342465631   15.99853849525789    7.82248446330146
C        15.98881008162310   15.67489985795909    5.89499813305759
H        16.88412693941495   15.97843261961325    5.37019964256728
C        14.87419227611534   15.27250278019167    5.17167422842092
C        13.73507948458548   14.88230346510323    5.87102574493501
H        12.85978209417267   14.56226352983136    5.32230724437395
C        13.71388546689662   14.89010822132188    7.24983363991647
H        12.82528408597324   14.57234829904242    7.77903024188647
C        14.88097716483263   15.25964327660896    3.67371579056647
H        14.52367092290238   14.30235505722180    3.29715796606995
H        15.88125185221055   15.43724236280245    3.28665031936958
H        14.21946083481471   16.03565112753303    3.28784972708609

