140
CSD_code = VOPQUP | q = 1 | S = 0 | Stoichiometry = C69H62O5OsP3(1+) | MND = 6
Os       31.13203814975813   -6.23782702012581   31.24315576927784
P        31.32815352808283   -3.97326833940133   30.54499112072089
P        31.40621420095508   -8.50869184076094   31.80654653368810
P        26.81176115207234   -6.04937641676176   29.75005008629279
O        28.04241205703833   -6.12382622571344   32.05579023502409
O        33.82309663080862   -4.96744018185111   34.38444101417898
C        29.07581716231368   -6.18695319786079   31.17240243491728
O        33.29273184238886   -6.54555061664739   30.63211882455694
C        31.34012295020308   -5.62662300519982   33.03102143285460
C        28.26268656917226   -6.05576261506801   33.44995434527204
H        27.43241991789284   -6.57443078234379   33.92976281398376
H        28.28423920619930   -5.01254186356887   33.77570617867638
H        29.20437028585005   -6.54417192083879   33.71053873040727
C        26.37777595444314   -5.84045582713755   28.00451106860478
O        35.13823233990526   -6.74240634121644   29.40775156057688
C        28.57238588744365   -6.25914114264675   29.87717434299477
C        30.79563920317793   -6.68264894301993   29.21907063743150
C        25.91218838825127   -7.51913413169739   30.30901314909554
C        28.88060295294548   -9.16448957800520   32.74085371007771
H        28.55084264851610   -8.54815244446881   31.91701396740170
O        34.07576688658828   -5.51969430231504   26.58668381047481
C        31.74519812338506   -6.90090495743609   28.18457151550391
H        31.34359190759340   -7.10908804527553   27.19176370563716
C        30.72288148853973   -2.79939860573551   31.81130823025999
C        26.18995045023108   -4.56222578869887   30.59271524888709
C        29.39301754960825   -2.93036132581411   32.20927592012073
H        28.77715070993917   -3.68333361539134   31.73464931910758
C        28.86705652052781   -2.10978631896776   33.18799221745968
H        27.83196897283192   -2.21455331708544   33.48111394070193
C        25.64813078201649   -4.61449677283301   31.87391652328919
H        25.56943301996987   -5.55977836735465   32.38837815696050
C        33.10992665152514   -6.84218977388530   28.26437452071496
C        30.53474523265939   -3.32938420577345   29.02721458214361
C        33.92673249224460   -6.86677425126056   27.00281437972918
H        34.91271027625504   -7.31795105498105   27.17519318891073
H        33.40917419812806   -7.44420824236869   26.21990765005234
C        33.02418208519980   -8.93054552005716   32.53015386140281
C        33.06178928778809   -3.45014033171055   30.34030081166250
C        24.60342776375331   -7.47961561348080   30.77982455384250
H        24.07574925562724   -6.53861896228721   30.84505423537872
C        25.70381242958976   -5.44265639807996   25.34443218177880
H        25.44195436985531   -5.29007107410425   24.30872417430709
C        28.99583793162231   -1.89262762484045   27.85937271957656
H        28.22149639665701   -1.13979836373180   27.88651401197762
C        33.80819715302450   -6.67489471120913   29.51604257551558
C        30.19149643973488  -10.28657808211971   29.96989757993475
H        29.31303817034996  -10.24550299715967   30.59649789402809
C        29.67015395371548   -1.15412325748892   33.79214211791509
H        29.26511827987740   -0.51683894735345   34.56372035839549
C        30.99130488629012   -1.01919733443485   33.40233111749342
H        31.61814636678783   -0.27381733683231   33.86868204914453
C        30.66730073135880  -10.07347605761436   34.05712708031436
H        31.72005938050006  -10.18885656818307   34.26605527834786
C        29.49170580373760   -6.56312284873717   28.82466606452184
H        29.14214916513427   -6.68000620705258   27.80273709539686
C        29.73646528577757  -10.67868688974898   34.88450519115835
H        30.07374822106835  -11.26355444514727   35.72690667571869
C        31.35086815499667   -9.62386172074059   30.35693474079284
C        31.45813135681754   -5.01412042464848   34.19177077758982
H        30.58387026242875   -4.69139450425079   34.74619583185785
C        30.24632190088943   -9.31962078127393   32.96741025469896
C        32.73331890536047   -4.66679164567568   34.83025379259072
C        27.95365069016802   -9.77649219427516   33.56313259444501
H        26.89777312263307   -9.65596629038772   33.36530247419621
C        31.51850557035598   -1.83346395995966   32.41304300829530
H        32.55001021991573   -1.71470815976985   32.11677112460035
C        25.23687614490154   -6.43733247072177   27.47842587615353
H        24.61430695069924   -7.06117920262812   28.10391727292200
C        26.30575477478653   -3.33788001981816   29.94156034699315
H        26.72034938664109   -3.29138374091177   28.94561079167206
C        26.84054530210079   -4.84630500293508   25.86686689407832
H        27.46786267862998   -4.22952803132028   25.24153547259031
C        26.56841020083964   -8.73857616902899   30.16852764338360
H        27.57004212437902   -8.75357047026790   29.75873856552284
C        33.52291514439428  -10.23134484357356   32.45614138606470
H        32.95502243794132  -11.00149730425697   31.95114239558018
C        32.45751680412585  -10.46000994725006   28.38619560834129
H        33.34545475917718  -10.52995084859068   27.77551122044248
C        25.88652711098882   -2.17831733728364   30.56876294442564
H        25.98015561152877   -1.23055997813730   30.06091219636924
C        24.64230554345913   -9.86812440021804   31.03849708458566
H        24.14827534584345  -10.78134922367916   31.33301097303361
C        25.22356450407852   -3.45182854949040   32.49021902017861
H        24.79921922981358   -3.49742421135724   33.48220059129117
C        33.92885895442705   -3.79192941477681   31.37793937594654
H        33.55783608026720   -4.36211719730905   32.22021701856551
C        30.99932652008074   -3.79724525270051   27.79726723917512
H        31.79825103611689   -4.52404013850052   27.76213980405711
C        33.75398665784642   -7.95441094884985   33.19655036744925
H        33.37112499526281   -6.94432951913855   33.25720578420099
C        33.54577935158088   -2.72286677832905   29.25861698662252
H        32.89163402956196   -2.43377802294989   28.45010511598402
C        32.48537563121501   -9.72182589367460   29.55365611473469
H        33.39900511904641   -9.22921157785915   29.85506402037123
C        31.29509027472803  -11.10827134267513   28.00194353831418
H        31.27175208044895  -11.68338904683423   27.08874975396642
C        24.90453362792779   -6.23717406371196   26.15021358949668
H        24.02001908773338   -6.70318377834527   25.74370049183750
C        27.17974739116705   -5.04054075827821   27.19307220109798
H        28.07205874591495   -4.58274718682442   27.59610528588088
C        25.93486359631749   -9.91037663642112   30.53942295912238
H        26.44553136874028  -10.85624979004284   30.43871654310199
C        25.34356665957895   -2.23263905297301   31.84175508923354
H        25.01333626857850   -1.32702126983210   32.32728628328459
C        34.74321405283297  -10.53643953869155   33.02989442077322
H        35.12594816350590  -11.54449838847269   32.96798810044606
C        34.97466563293810   -8.26563638583269   33.77012975622647
H        35.52989606448258   -7.49383489572950   34.28081025577894
C        28.38126908808483  -10.54080773078817   34.63676346854488
H        27.66119083208339  -11.02112529099533   35.28161486567556
C        35.47273934862107   -9.55481230704111   33.68471256728468
H        36.42645688234956   -9.79936370398355   34.12780683802463
C        30.46715112785196   -3.31526262080875   26.61569446993594
H        30.84798547152129   -3.67984507849116   25.67337420214818
C        29.52400471129052   -2.37376782103518   29.04630981691411
H        29.15595167715319   -1.98675403391837   29.98472040483989
C        34.88083346116979   -2.35862719478450   29.21409394897123
H        35.25026048012762   -1.80172751753881   28.36605356478209
C        35.90759238039325   -6.72108766880195   30.60232912430050
H        36.88744529558186   -6.33794855302332   30.32680249915392
H        36.00008457753303   -7.73583331580451   30.99842569160096
H        35.44166210109464   -6.08493519121147   31.35468812191300
C        29.46441651762744   -2.35863018418881   26.64259405996515
H        29.05736093510320   -1.96939778561748   25.72131286848181
C        35.73666756762366   -2.69562616856170   30.24870338121010
H        36.77504792296901   -2.40268431502417   30.20908131282787
C        35.25533418035680   -3.40631106338875   31.33691440720991
H        35.90976455561689   -3.66295754448308   32.15684651598577
C        30.16685138484789  -11.02550848689460   28.80030315726088
H        29.26286643691899  -11.54177499301755   28.51126537920247
C        23.97618852198913   -8.65722252501889   31.14796710678885
H        22.96213106568472   -8.63040082458557   31.51716239400834
C        32.57480043537332   -3.86864139323478   36.10151535977305
H        33.55289588031091   -3.61162485986261   36.49964732837557
H        32.02715175408891   -4.45318723773830   36.83865201006467
H        32.01246630015677   -2.95878236077784   35.89767611482609
C        34.94088075127973   -5.37300826846600   25.49102135464785
H        34.97641223479996   -4.30934198584696   25.26451651618703
H        34.57181753523311   -5.92206445765098   24.61566579023342
H        35.94936330994921   -5.73014825574055   25.73099588702584

