44
CSD_code = VOPROI | q = 0 | S = 0 | Stoichiometry = C13H26Cl2P2Pt | MND = 4
Pt        0.74793966219352    9.73579494548551    6.38508438413302
P         1.61167665416039   10.46141183484881    4.41952711513654
Cl       -0.48940467493684    8.36527123647494    5.03766548649271
P         1.93647218741423   11.01832674900385    7.82525099067966
Cl       -0.18103328831024    8.89795854904788    8.29823775812998
C         2.87467180074504   11.80913336319620    4.54241280640290
H         3.49749858916098   11.78495695071552    3.64563406232743
H         2.35365137490717   12.76954575467688    4.56302129299071
C         1.00226155032749   11.32241927507658    1.81284518674012
H         1.78436845438170   12.08501292933190    1.84663224984913
H         0.21439544501872   11.69083463266790    1.15120739270934
C         2.97682010164851   10.05326261901719    8.98705627524492
H         2.31447249426084    9.28187440094475    9.39078609808096
H         3.76226110251233    9.55367466096481    8.41172776187909
C         0.96004053977549   12.05168384042475    8.97991229716873
H         0.44393016652397   12.82020766004780    8.39668744462258
H         0.20276076454885   11.38671935295939    9.40489237159090
C         0.40672380699325   11.10900468072900    3.20161503286906
H        -0.39765539315684   10.36916696506399    3.15844233388123
H        -0.01215097194645   12.03879728682678    3.59810954833889
C         2.50848101314143   11.61335259235383   10.92554494576220
H         2.97570092304555   12.08819012991069   11.79114219897154
H         1.77318566449711   10.89386203076982   11.29050156504088
C         2.79685066339111    9.55159538346765    2.01883386314602
H         3.22817078496457    8.68350258792180    1.51416587208166
H         3.55698838211293   10.33719292792903    2.01395080888015
C         3.57685995096796   10.87664212948997   10.12348498215031
H         4.12143140316984   10.19974081254064   10.78647689211928
H         4.30040899924582   11.59877668960024    9.73625688092509
C         2.44762836171576    9.14879767854458    3.44900798259819
H         3.34315660691791    8.83594248824349    3.99464582592857
H         1.74787355261418    8.30800445675970    3.44239065405926
C         3.11205097605317   12.22063055530073    7.05155726241586
H         2.56515188130371   13.13878965954330    6.82307101215910
H         3.88864489460173   12.46545678044125    7.77929646107455
C         3.76002832139029   11.66434083935743    5.78193712611066
H         3.99723885060660   10.60529586417544    5.93311871685520
H         4.70167046545375   12.19204980055435    5.60636479234600
C         1.79827987311967   12.67592785686769   10.09199565755804
H         2.53500928231496   13.36552753836472    9.67243911229491
H         1.13691571622558   13.25764639233955   10.73887977067819
C         1.57383768842063   10.02824830259687    1.24136879588044
H         1.85377994317121   10.18833940704508    0.19783013978211
H         0.80525543533534    9.25368940837633    1.27029079191507

