91
CSD_code = VOPREY | q = 0 | S = 0 | Stoichiometry = C38H46Cl2N4Ni | MND = 6
Ni        8.12448990723482    3.33698566648432    4.36517486360366
Cl        9.60082828500331    1.84670029288698    4.65529141433803
Cl        6.54952789643071    4.75069630844002    4.44493163061610
N         7.06394491773132    2.04115337928541    2.99723201717930
N         6.79921211875926    2.15463203409722    5.60294641623326
N         8.52664230318013    3.79324840938118    6.44383797972013
N         9.57101946531784    4.94184455841454    4.33489405438575
C         7.46148173026549    1.80895010905334    1.66809380903020
C         8.00048241588785    0.56034056592330    1.30590930708285
C         8.37033042709024    0.35988824783885   -0.01692229446668
H         8.78799093358862   -0.59146393613869   -0.30855689769754
C         8.20189827905085    1.34256107878779   -0.97072929119309
H         8.46978255705261    1.15295406285275   -1.99978265860036
C         7.70736514445481    2.57776306616895   -0.59720568126276
H         7.59654007453337    3.34867433669639   -1.34244066409843
C         7.35350806565605    2.83982176009170    0.71717142798598
C         6.83607405093462    4.19177126413727    1.13330035617310
H         7.25023807233953    4.39935806979539    2.12908167913045
C         7.26976721725616    5.33057518734145    0.21408813195003
H         8.33930913134635    5.29222189090874    0.02356755056695
H         7.04974394633500    6.28009805224949    0.69664603793516
H         6.73507552874904    5.30391915834984   -0.73382136732820
C         5.30881468923829    4.17589133399767    1.24557036815665
H         4.86061261410529    3.91303797669976    0.28787096406001
H         4.95407352747634    5.15884646954674    1.54386983571545
H         4.97874795977291    3.46385398982721    1.99613016800359
C         8.25433383257503   -0.55115956816997    2.29933093268353
H         7.86685436527879   -0.26430159566304    3.28028225083490
C         9.76158293943417   -0.77053114016592    2.45825186672339
H        10.23083229487843   -0.98548402866322    1.50094684927771
H         9.94403164327395   -1.60628040443293    3.13021349155836
H        10.21709396157533    0.11655575403080    2.88965164247543
C         7.57533000781055   -1.85603565721238    1.87062013142790
H         6.52746298399102   -1.69857665427771    1.62479344371827
H         7.63630411399930   -2.58560188949060    2.67555015853501
H         8.06599934691478   -2.27891502538689    0.99751729024446
C         6.06021787265119    1.42279504343772    3.49941784562772
C         5.09166284927045    0.59241328000900    2.71415350090181
H         5.36236362227843    0.57555455838253    1.66155633637508
H         4.09407532530037    1.01990188541846    2.81347208475376
H         5.06520299927875   -0.42610498159947    3.09726591683174
C         5.81961088456056    1.54856905923240    4.95001202982841
C         4.70294149510926    1.07011460228850    5.63616732863542
H         3.89603021474308    0.57313183701821    5.12286250943165
C         4.64696206993464    1.25533856844653    7.00939831924609
H         3.79144684941058    0.89962644032468    7.56472902798187
C         5.67825429756702    1.90584046435076    7.67017030938118
H         5.63480430461778    2.07680960529673    8.73406727515466
C         6.75797006966632    2.35297948671736    6.91451619939761
C         7.92779897653613    3.10371923454055    7.40629500579573
C         8.42986703678487    3.10723924531458    8.70437923930510
H         7.95378905898390    2.53789831590066    9.48681375922236
C         9.57625723532482    3.84598833368538    8.95598770783349
H         9.99499831083246    3.86757870295859    9.95150622611185
C        10.19543132634119    4.54778630391443    7.93245129179771
H        11.09168755596152    5.11358897843927    8.12783535978185
C         9.63029372889237    4.49259807399543    6.65801099525530
C        10.13244694716345    5.19204212788847    5.45938260711598
C        11.28566794278732    6.13010855881994    5.64453543564717
H        11.57430403444654    6.57747417793199    4.69680533597055
H        12.13396473959480    5.57438582401751    6.04393959633644
H        11.03000949790671    6.91631316493593    6.35247647492101
C         9.84445669402967    5.72081703098947    3.19783405171158
C         9.44009244675513    7.06879427510728    3.16112627765007
C         9.71902641797570    7.81059952994126    2.02158853525441
H         9.41053230570585    8.84376267504314    1.97748954926226
C        10.39410854441575    7.26284855083446    0.95026772719256
H        10.62365298994614    7.86790561360764    0.08546865310726
C        10.75805436064212    5.93004498364681    0.98275323591972
H        11.26986883663393    5.50293008807824    0.13570459020340
C        10.47460428439032    5.13707247171874    2.08364747329232
C        10.84990032658390    3.67876516760319    2.11577286963186
H        10.02487192661806    3.14866602185055    2.61249517358087
C        12.12155964928275    3.46537130656743    2.94218488555588
H        12.94999038877612    4.02974051393003    2.51518112299393
H        12.38010961056125    2.40980669752624    2.94959143114765
H        11.97678372612629    3.77659408427655    3.97231538549692
C        11.02866764922654    3.05372183841235    0.73492788802392
H        10.18836493566462    3.29000045191749    0.08718184541141
H        11.07783331575621    1.97214090342174    0.83752091385196
H        11.95093387718887    3.38839678055882    0.26311044409888
C         8.66094505190000    7.73167921394704    4.27483255162736
H         8.56439378485177    7.04316839167801    5.11832115208748
C         7.24315051807450    8.05595339850215    3.79564775190431
H         7.26232376932788    8.68244066461679    2.90694927857617
H         6.69955899930352    8.58021276204393    4.57867360164669
H         6.71267204460567    7.13434726937154    3.57185048302010
C         9.35593096318709    9.00623078543698    4.76543952922560
H        10.40710091785232    8.82925381792073    4.98235455307384
H         8.87127524421402    9.36664113054701    5.67053871449299
H         9.29475042595584    9.79250956557951    4.01721539756314

