43
CSD_code = VOPSOJ | q = 0 | S = 0 | Stoichiometry = C19H15Cl2NO4PtS | MND = 4
Pt        0.23941764577971    0.14518449092210    5.01718388224429
S         2.55657953402063    0.18838251963439    4.85992845266752
Cl       -2.00272528643982    0.13493086363498    5.30195153350292
Cl        0.59806890163844    1.13862082017243    7.00419930043090
N         0.06884006716638   -0.86270198673767    3.29851984829059
O         1.23423792698821   -3.91451284767550   -2.13144067851121
O         2.29566530813412   -1.88952314048934   -2.28199526281447
O         1.07293946030437    1.66215337672356    3.01377513191218
O         3.12031754713150   -0.38783893814467    3.63817704139834
C        -0.54579949191819   -2.05587883752989    3.36500068566682
H        -1.09562696736062   -2.25967304319369    4.27512174266082
C        -0.51047878753622   -2.95738737084239    2.33752511459205
H        -1.02800578967853   -3.89944344241280    2.42352952130537
C         0.21152815088209   -2.66398236457692    1.16533483384713
C         0.29331414100242   -3.58774046202642    0.10072154810664
H        -0.19333126917058   -4.54601099170989    0.15781633540415
C         1.01139061342228   -3.20953229926495   -0.99049318988065
C         2.03425599509006   -3.10185850100048   -2.95497709949777
H         2.98437463710212   -3.61346806727715   -3.17390735255380
H         1.50663264275995   -2.89247217849428   -3.89862544132997
C         1.66318749122676   -1.95667399459359   -1.07747268123127
C         1.61152278110513   -1.01931467748719   -0.06629216965948
C         2.27738440337189    0.26927282111745   -0.10427760558632
C         3.08971935348071    0.65857894180775   -1.17275447510196
H         3.23904903318890   -0.01350112023440   -2.00035726866277
C         3.70783351047996    1.89301163762174   -1.18310385912475
H         4.33397638417938    2.16772380202091   -2.01903141620298
C         3.52798585885114    2.78164967845382   -0.13095014897319
H         4.00935270034504    3.74762963311223   -0.14602691038102
C         2.72966431504760    2.41734781575180    0.93067903769224
H         2.56369124333928    3.08754951458990    1.76039456195243
C         2.10598399012826    1.16829284491403    0.96201708049361
C         1.28819115912156    0.83932281937980    2.12671042074016
C         0.71748659299056   -0.51752530521982    2.18258522461678
C         0.85131534613263   -1.39576553258448    1.08453320543170
C         3.36792772855163   -0.66370381311488    6.25109914815246
H         3.12154601964737   -1.71781585128249    6.18228132591251
H         2.96840155764702   -0.23864999436969    7.16469991542558
H         4.43983130823567   -0.52483629700785    6.17589650472541
C         3.30643134830713    1.82435961675933    5.09575654279910
H         4.37911349821396    1.73372519493017    4.97334986771980
H         3.03064581311803    2.16336224759238    6.08704939503413
H         2.88516358395230    2.48181241816624    4.34436835677310

