76
CSD_code = VOPXUW | q = 0 | S = 0 | Stoichiometry = C40H23F6IrN6 | MND = 6
Ir        5.10238368283160    1.68664536911662   10.86185398206135
N         6.21957114874251    2.29593122453680   12.33648236289146
N         4.44136894871355    0.39996731510300   12.49342816586818
N         3.49859845568513   -0.47384954223172   12.78627600143480
N         4.02082622753114    1.02232584172105    9.35093532198469
N         6.33141334602210    0.19055687155646   10.10741146692232
N         7.40403533304659   -0.41768521746814   10.52310275116256
C         6.08435335664419    3.17362334377427    9.91336412509495
C         5.97149501331309    3.62754718947693    8.60632271025647
H         5.22891142932471    3.19791043668191    7.94766372484590
C         6.79556870218307    4.63076742669560    8.12174945164129
H         6.68784871398754    4.96634367611772    7.10023857505440
C         7.75772306396890    5.20563127132936    8.93768208694196
H         8.39824981828483    5.98534977543445    8.55296807566586
C         7.89579330990107    4.77796156728214   10.24227010378493
H         8.64785151264125    5.22582392654679   10.87473958869689
C         7.06967820055176    3.77032576726128   10.73784524836335
C         7.14222591116383    3.25132865691923   12.09660611131442
C         8.02664491053293    3.63230542456583   13.10345447748890
H         8.76730478269265    4.39160031944106   12.91412082944229
C         7.95350272613376    3.02407091176125   14.34566835381767
H         8.63583693455836    3.30968376303731   15.13132289667277
C         7.00278491813681    2.04087903586945   14.57554324035170
H         6.92949406502617    1.54502169570728   15.52950526964646
C         6.14628331142408    1.69446533039703   13.53849268664063
C         5.09766449141580    0.69530654284181   13.62020287363190
C         4.54426745205949   -0.03944113734092   14.68365384808661
H         4.83403523947928   -0.04341696899543   15.71343736450209
C         3.52261873424359   -0.76944801641525   14.11043164460846
C         2.56380301470560   -1.72544923412204   14.72462729953780
C         2.64415886247328   -0.95547606869179   11.76181338128970
C         3.16482865366430   -1.82154714876737   10.81093907150125
H         4.18762531146810   -2.15704021859917   10.89159020273762
C         2.35830765090331   -2.24257094659737    9.76926871139240
H         2.75457998255948   -2.91426640014139    9.02363761228306
C         1.04958678371899   -1.79771540676412    9.68245077906579
H         0.42692341518292   -2.12451118794194    8.86378990124633
C         0.53938824323025   -0.93480036327574   10.63802198442436
H        -0.47962699479689   -0.58773555859900   10.56811907489128
C         1.33528728660685   -0.50395131271689   11.68445985682974
H         0.95332228525104    0.18053007918846   12.42626525204245
C         3.46661223174194    2.86838949366043   11.10484500463155
C         3.18040834647857    3.81874790110712   12.07741255718472
H         3.93805732836372    4.08968076631160   12.80166657269193
C         1.94249297192620    4.43893550142920   12.14492700719791
H         1.74989931693788    5.17391700789144   12.91375235196199
C         0.95080149064786    4.12031844040200   11.23161977656668
H        -0.01397353312663    4.60305819730793   11.28737030610963
C         1.20098322651841    3.18467129520136   10.24741946737825
H         0.42565113487657    2.93845106808481    9.53681260342975
C         2.44390477898529    2.56016449516355   10.17598432054105
C         2.77549974731374    1.54662044092857    9.17572111942140
C         1.97055641063813    1.08567274213883    8.16385792113840
H         0.97168668938738    1.46813278244251    8.03095863224621
C         2.45445432398439    0.11373534785521    7.26601972235357
C         1.67295980239698   -0.35110513687950    6.18957415296856
H         0.67507728817427    0.04486084843611    6.06864056328321
C         2.17076071922443   -1.27213720734114    5.31008068233307
H         1.56635291430501   -1.62451224075941    4.48747948516992
C         3.48078527518447   -1.74747674822639    5.45819296018122
H         3.87645792838304   -2.44731213856246    4.73765133398139
C         4.26065028015378   -1.32393680839372    6.50116721771040
H         5.27559035618345   -1.67042396057309    6.58460933053242
C         3.76483775137632   -0.40875121452655    7.44805180435484
C         4.50596740724643    0.04965214567804    8.57560412268325
C         5.76819115273666   -0.46800723204727    9.05181863016293
C         6.56345721874462   -1.59170775601920    8.79554079548551
H         6.44879955109254   -2.37736631662678    8.07899206934837
C         7.57429037506164   -1.50166861500132    9.74870289393948
C         8.69396395176804   -2.44425847573041    9.97504221779296
F         2.90448220879899   -2.03197964630863   15.97861451930171
F         2.47928498265784   -2.87977423653766   14.04186198565254
F         1.30952090554552   -1.23335622581112   14.77467358864806
F         9.90236122161912   -1.85753385678323    9.99899978546750
F         8.58723306711241   -3.11440607777912   11.14508192245738
F         8.75512294235396   -3.39229261382443    9.01879610957949

