69
CSD_code = VOQCOU | q = 0 | S = 0 | Stoichiometry = C35H25F2IrN2O2S2 | MND = 6
Ir        8.28068261023317   15.73640261650483    4.46431961890571
S         5.95947573030007   18.54769606322384    7.04463930680908
S        11.98729349759989   13.58643687368911    3.20562122437798
F        13.51949240241276   18.89185726041901    1.66284727887929
F         6.97472183089247   14.57660753686410   10.96048292534695
O         7.26806926235584   13.85047679438634    4.04447777460318
O         7.10016994335005   16.52275254992667    2.80861354217571
N         6.88849425293970   16.52935067379645    5.73093027427636
N         9.85136097471852   15.02680677211391    3.36697706840220
C         5.19970565404009   16.99157680102079    7.25771574245751
C         4.13994411939363   16.65772883623975    8.08212027693655
H         3.65838986028754   17.40999301162687    8.68637285203787
C         3.73083306063867   15.33862331846798    8.11442361657237
H         2.91214294101223   15.05231938671873    8.75630896605085
C         4.36744030423099   14.37467590128060    7.33585791018506
H         4.03217946346293   13.34986138086306    7.38630404432467
C         5.41924944222333   14.70438686802784    6.50883920333215
H         5.92666948331228   13.96632985349933    5.91090730213240
C         5.84816599296380   16.02895306386542    6.46059779171133
C         7.08816228408729   17.81746404279095    5.94433794385274
C         8.22467063919091   18.43674065026201    5.36242547932962
H         8.40625013508936   19.49228963499906    5.50598971535200
C         9.05244803304203   17.57903525309620    4.71132288132493
C        10.25008009631347   18.00501519752946    3.99922354789496
C        10.14545765843674   18.91894430048742    2.94889016621503
H         9.18627113033789   19.36525007392139    2.73696881198207
C        11.23946439666720   19.22138471260731    2.16128057204982
H        11.16483234396685   19.91114692720439    1.33528200330150
C        12.45011496929358   18.61599332774571    2.44220127494928
C        12.59823947031130   17.73459932559208    3.49890536861081
H        13.56227845947357   17.29237312947694    3.69616419138548
C        11.49485126833830   17.43052923927100    4.27008633042972
H        11.58462775381472   16.74203858589538    5.09718230997934
C        11.50388828006567   14.52169404281677    1.81433962180683
C        12.13633095273411   14.62868287552490    0.58847059557989
H        13.04006783005053   14.07528359777825    0.38874188697169
C        11.58320884763162   15.46902765232512   -0.35824147013315
H        12.06263757692806   15.57497250631358   -1.31905173893292
C        10.42106973058304   16.18638278800870   -0.08363684275616
H        10.01531019732370   16.84269522179641   -0.83845776699226
C         9.78505274748020   16.07807828504758    1.13405399385298
H         8.89332495615663   16.63701905962041    1.36202703141699
C        10.32404271520579   15.23413015387680    2.10260157049404
C        10.61899770318502   14.21527083872346    4.07178288152655
C        10.32687850253615   14.02183374269888    5.44697620024289
H        10.93093796074076   13.35528459833227    6.04579208704885
C         9.30914265938554   14.79087904273599    5.91301633189483
C         8.81027906244061   14.72035437588384    7.28029868116135
C         8.73049262585776   15.86324936444941    8.08034580639819
H         9.14876361042908   16.78895753528387    7.71393531882933
C         8.12875108048578   15.81817290433725    9.32159229561755
H         8.05734357180010   16.69583039702615    9.94485492078959
C         7.59474955177224   14.61900374647356    9.76009762456150
C         7.67720736839550   13.46409080032009    9.00488299320273
H         7.25770888407379   12.54547528861017    9.38404183310972
C         8.29432167926303   13.51902124699347    7.77004351397892
H         8.35448282993349   12.63434106072815    7.15537563788286
C         5.89198687216257   12.21322899266919    3.04427138195828
H         6.38900282335470   11.58282042943409    3.77764912113430
H         6.05958632733360   11.81012531203831    2.04819928274088
H         4.82094456607683   12.21414301365714    3.23766407692201
C         6.43114476800093   13.62923028486818    3.13318796495686
C         5.92927730266052   14.54178207577976    2.20286344928124
H         5.20399217817378   14.16894976132881    1.49544396412140
C         6.27531325771306   15.89085589358035    2.10133630375530
C         5.59153704206242   16.67943830503242    0.99940127564020
H         5.87475322177785   17.72709765561644    1.06588769974829
H         4.51128722258116   16.58946270948352    1.08582346904598
H         5.89145402892136   16.28789447740688    0.02897168697387

