61
CSD_code = VOQDUC | q = 0 | S = 0 | Stoichiometry = C29H25Cl2N2OPRu | MND = 6
Ru       17.43295981752474    4.68555796493152   13.85560728002975
Cl       19.61000491927294    4.95584579046890   12.87895437017246
Cl       15.23146127874749    4.55614221878946   14.81112111464497
P        16.77023628949564    2.77508269647301   12.69488876535526
O        18.82430867748839    3.26472697133667   16.08037960011047
N        16.66327329001383    5.88474043884113   12.33354796357747
N        17.77671396771569    6.44568862401032   14.88266466916148
C        18.23775293227990    3.74626673094677   15.22068634831775
C        17.19028352624200    5.85213632821144   11.10848897188148
H        18.03960259230935    5.19438099126363   10.96424731931002
C        16.71701488742482    6.62866120902031   10.06639482855313
H        17.18225420717372    6.55857553474011    9.09623941295795
C        15.64563973693318    7.47733306804753   10.29077857938519
H        15.24441042319222    8.08807536757887    9.49618646541276
C        15.10611205365528    7.52159876774611   11.56572533155795
H        14.27465584223895    8.16772312789154   11.79935861662121
C        15.64477868986689    6.71627188126278   12.55346264963427
H        15.22197462929379    6.71407607300469   13.55192437978170
C        18.38080486088591    7.48633868976593   14.30718733853387
H        18.75366782643881    7.34116081290446   13.29979732127728
C        18.57667515769019    8.69247742252244   14.95650286608544
H        19.07877320098608    9.49774150252688   14.44391186087263
C        18.12665759095316    8.83921702716312   16.25831211807024
H        18.26549309799636    9.76632573753040   16.79308926610704
C        17.49769315377280    7.75765535210175   16.85561829127355
H        17.12979141140530    7.81488528438025   17.86760287491086
C        17.34605670704367    6.58493552926198   16.13874815852820
H        16.84585799957747    5.73092475921860   16.58005297160902
C        15.88700634343079    3.18749912927093   11.15811665341790
C        14.65287196510797    3.82750023074874   11.27871656296534
H        14.23094246858016    3.98103125880104   12.26465811604881
C        13.98672134730276    4.26696199697840   10.15116711296782
H        13.02980391520360    4.75897710625036   10.24879973534073
C        14.54844757027498    4.08103178930992    8.89694761594203
H        14.02718742244557    4.42589453021489    8.01592242899092
C        15.77902009481709    3.45810152451630    8.77409511901371
H        16.21916957247934    3.31888832239346    7.79734786222927
C        16.45351879628005    3.01748002142564    9.89985599535249
H        17.42125013140504    2.54479091950705    9.80532910714027
C        17.96035552668208    1.49267437966360   12.18454398986411
C        17.51947428048062    0.39125285337956   11.45312277035269
H        16.48128202367892    0.32390394377105   11.15705991980807
C        18.40755449754371   -0.60875009437618   11.10906080022127
H        18.06463403998900   -1.45931854817373   10.53769691817926
C        19.73594316473916   -0.52409977526794   11.49956665813578
H        20.42703808815533   -1.30896554508451   11.22888329981731
C        20.17349970508651    0.56209912379400   12.23698004954516
H        21.20653525303286    0.62880335537895   12.54407673373832
C        19.28809181858219    1.56914689032713   12.58325545627520
H        19.62765427213776    2.42550381472576   13.14915416664273
C        15.59276569036498    1.67845256760668   13.55892326260696
C        14.46109214542071    1.13915701429561   12.95980094535829
H        14.20074677198257    1.40040203510880   11.94365694246619
C        13.64902705352803    0.27278773609631   13.67123640268073
H        12.76520499173328   -0.13511907637051   13.20195630975885
C        13.96126250478668   -0.06768688273169   14.97558129802498
H        13.31944093059850   -0.73802104053735   15.52809744049992
C        15.09711484965427    0.45589890330941   15.57199042979602
H        15.34536249060099    0.19377193540415   16.58983451302969
C        15.90975809778640    1.32088325491566   14.86574986066441
H        16.79321340838188    1.74182042332806   15.32763578925942

