57
CSD_code = VOQFAK | q = 0 | S = 0 | Stoichiometry = C25H23Cl2N4OPRu | MND = 6
Ru        2.53662516502916    6.01192760460968    8.30501577238945
Cl        1.72519992293649    4.37436494924137    6.72921694760359
Cl        3.53577665821008    7.64934767490399    9.75878808666026
P         3.47649360898630    4.34490899932966    9.59187657814506
O        -0.11194355575903    6.09128583702262    9.67551975200576
N         1.92046298470930    7.57223978094014    7.07030306611349
N         2.25420832800587    8.81854003540138    7.39371856721258
H         2.76059537297183    8.95201170498037    8.28119635034404
N         4.26433753733440    6.12918701414774    7.11571523899619
N         4.28780052691734    5.48468797872798    5.95230552804136
H         3.47739502402018    4.88031966116092    5.74351840594022
C         0.92674275182636    6.02646228744299    9.19174108045748
C         1.28994342336428    7.62343045990956    5.90782819931064
H         0.91714922667333    6.73076856201783    5.44110894072940
C         1.21715253732356    8.94933381919165    5.47372410649156
H         0.76643771100159    9.31123360798423    4.57349127797456
C         1.84680873062032    9.68372076975436    6.45621192435804
H         2.02151804418157   10.73694238453449    6.53964946142509
C         5.41548448202399    5.74047912804173    5.27931394766763
H         5.61517248749758    5.30770089888236    4.32019874536750
C         6.15878138993151    6.60774638641987    6.05113023628696
H         7.11687062606504    7.02807168964807    5.82744753540808
C         5.38970387589461    6.82253951177884    7.19602275797469
H         5.60578946322936    7.43506649025952    8.05081971877499
C         2.76800673239127    2.66661793914341    9.52591579149408
C         1.38134395598363    2.56371411858172    9.48712007673178
H         0.78462530405204    3.46552289542934    9.43474694730624
C         0.77284825097790    1.32284385908026    9.49717933755575
H        -0.30371320526824    1.25063424634939    9.45583715672269
C         1.54577128290785    0.17501199198890    9.55402373604555
H         1.07289098938650   -0.79594789833447    9.55601651827218
C         2.92621887661517    0.27252577036416    9.60736477095330
H         3.53023816486789   -0.62198734080954    9.65532861288770
C         3.53959382288957    1.51225206645120    9.59784505852442
H         4.61807715453021    1.57746421782992    9.63454777969155
C         3.55129982549494    4.52104738097574   11.40378958077966
C         2.69831997300636    5.40246901003051   12.05570319829694
H         2.03178041930143    6.02941747621766   11.47808458606494
C         2.71735437250611    5.49335475200053   13.43670744564350
H         2.05883062487389    6.18741756408395   13.93724970318895
C         3.58020754467668    4.69931409571284   14.17214568575426
H         3.59724658608095    4.77249684362389   15.24960454479223
C         4.42343235490569    3.80821416163201   13.52618222271631
H         5.09443372888950    3.18532056920322   14.09979003701891
C         4.40820526733645    3.71365637903151   12.14810546505553
H         5.06560043178766    3.01845581189334   11.64454411492603
C         5.20906228700543    4.12357252673066    9.09682518186736
C         6.23079934671812    4.81824339030689    9.73579558758098
H         6.00771514417213    5.41224588253738   10.61157236236597
C         7.52150107592555    4.75455202218823    9.24157175485938
H         8.31420882624058    5.29149876907454    9.74152588721095
C         7.79619224627801    4.01401559802851    8.10369294567757
H         8.80446266612887    3.96879906853036    7.71927410244577
C         6.77610616218019    3.34088855091170    7.44943587809982
H         6.98821254662120    2.77515459111247    6.55373235112373
C         5.48444582712337    3.40025349288701    7.93723503034443
H         4.67577509039871    2.89504296090423    7.42314432229355

