63
CSD_code = VOQFUE | q = 0 | S = 0 | Stoichiometry = C22H30N6O4Zn | MND = 6
C        -4.95691576741946    3.74777238575413    1.74133267108873
C        -4.14052925907182    3.62666228971244    2.98953411061863
C        -3.50480484362628    4.80569359595251    3.51309109850322
C        -2.76247607886057    4.64549478797530    4.72012943882994
C        -2.69612873147159    3.35558592829566    5.30503042934551
C        -3.34393408452592    2.31806610763679    4.67806529299634
C        -1.94385065281316    3.09101974705689    6.58600764685001
C        -2.05570572778729    5.73749980097576    5.30474201698278
C        -1.16055088957387    7.89618032527656    5.46141878662872
C        -0.15532611730105    8.47229771227535    4.45727724111820
C        -1.60036822392486   10.08346172646836    3.29909147181340
H        -1.56572114758908    5.54295271900891    6.26289835354193
H        -0.61888832903335    7.47875684156145    6.32210743640579
H        -0.88181372623676    3.32576964724848    6.46875394158175
H        -1.82094436531755    8.68998613040545    5.82970824050720
H         0.55380376009276    7.68453478605742    4.20238899890992
H         0.38232050692214    9.31861720288241    4.90883137577554
H        -3.31037656847950    1.31269013778269    5.07720108208211
H        -2.12390715281255   10.10777680029199    4.25621190697674
H        -0.96401446263784   10.97728272854685    3.23016549528362
H        -5.11627384958461    2.76451530778903    1.30937639130654
H        -5.92227745069782    4.19753000980828    1.97390556082706
H        -2.02750392428932    2.02324140791653    6.83191206605081
H        -0.16233952315146    8.90393644702622    2.47238349795241
H        -4.44637928278485    4.40019296300083    1.03631822080211
H        -3.33329592101893    3.72985207144418    7.78886615393404
N        -4.04661876522565    2.45228099766168    3.55064100346326
N        -1.96424703538704    6.91195822130907    4.79413179181375
N        -0.83720197490026    8.84794094778579    3.22697049069906
O        -3.65443186110477    5.92427095810186    2.90718842471976
O        -2.38725242145137    3.87493923790821    7.68028343361769
Zn       -2.11697889329530    7.09931553757585    2.73646854989871
C         0.72297269345021    3.74777966501132    3.73161691283581
C        -0.09341524255864    3.62666483109535    2.48341806628694
C        -0.72916029270145    4.80568920092920    1.95987116870126
C        -1.47147084926893    4.64549132414917    0.75282309759215
C        -1.53781642973963    3.35557978485866    0.16792443464400
C        -0.89000460495915    2.31806395156948    0.79488849460172
C        -2.29009043021748    3.09100705207026   -1.11305452235059
C        -2.17819657326926    5.73751082816423    0.16817956410651
C        -3.07341556515935    7.89615896133955    0.01152062094916
C        -4.07862731961769    8.47229602002371    1.01566206518935
C        -2.63359152846074   10.08346325645991    2.17384478309941
H        -2.66825260872191    5.54293403139144   -0.78993279668825
H        -3.61507017538266    7.47873490804278   -0.84917675262772
H        -3.35212773040873    3.32575739411537   -0.99580216228999
H        -2.41303170999149    8.68997082216452   -0.35676179113681
H        -4.78774607417390    7.68452419490074    1.27054751020370
H        -4.61628138263572    9.31861260986063    0.56410657005252
H        -0.92356623399878    1.31268500423105    0.39575933354193
H        -2.11005276068046   10.10776929578108    1.21672453803717
H        -3.26994678205461   10.97728474575830    2.24276418786396
H         0.88233343979370    2.76452314882930    4.16357165651725
H         1.68833229855961    4.19753961905458    3.49904328375963
H        -2.20643482177344    2.02322871581821   -1.35896001288040
H        -4.07161582117180    8.90393916087497    3.00055743944254
H         0.21243296381410    4.40020039468666    4.43662890808747
H        -0.90064541813400    3.72983436291661   -2.31591676733771
N        -0.18732474643128    2.45228198670836    1.92231482103194
N        -2.26968762567731    6.91195988953454    0.67880182911207
N        -3.39675352177312    8.84794125710089    2.24597073485374
O        -0.57952467086979    5.92427180587784    2.56576207378964
O        -1.84668771142513    3.87492626818992   -2.20732990991165

