51
CSD_code = VOQGEO | q = 0 | S = 0 | Stoichiometry = C4H24N2O16P4Zn | MND = 6
Zn       -1.04894080873540    3.93184569084915    5.31335899229266
P        -0.57744582401973    6.95143188844721    4.64125279064379
P        -1.10605767151808    6.32521712470866    1.91067342648518
C        -0.36922528966529    7.63623316351502    2.94565508757384
C        -1.11209331751598    8.94993416310744    2.78212473909644
H        -0.69655566513063    9.70288960369122    3.45225772390720
H        -2.15667801378901    8.79204853734140    3.04021361917179
H        -1.04482715034315    9.30286690984106    1.75335522556139
N         1.03535661153104    7.63674893837250    2.63014348809309
H         1.19562210187964    7.98807138974103    1.69232848081792
H         0.09599717907411    4.77186279442882    2.69507189041422
H         1.56382589600419    8.18623997614148    3.29764845185185
O        -0.28382976820549    5.46992760040038    4.50982097405435
O         0.65136487251656    7.62406087415442    5.46149383066983
H         0.28194585890896    8.16313530494845    6.15936737876147
O        -1.85112555058219    7.32300164597320    5.31235961335708
O        -0.09140685307392    5.11533922605985    1.81065339147443
O        -1.01827612161432    6.95506598317754    0.44536503578563
H        -1.58695813374994    6.46458192681153   -0.14842201041868
O        -2.48677070358883    5.89264625536827    2.23133894182078
O         0.20389625329577    2.81927844794950    4.03938650155681
H         0.13590239472704    1.90777876603962    4.42426620404262
H         1.09306183364395    3.11337006188820    4.26531407793639
O         0.55614594005908    3.90137312378000    6.62788271901646
H         0.65587102172222    4.70397911886527    7.14697275789622
H         0.55551378409376    3.14652298425489    7.27368261748573
P        -1.52147243659194    0.91159769887394    5.98371896126203
P        -0.99368968803798    1.53616814623812    8.71462725670129
C        -1.73045620117747    0.22574253611176    7.67883875460686
C        -0.98771864871542   -1.08807846164980    7.84201916574204
H        -1.40314103100606   -1.84077322623723    7.17152270099196
H         0.05693384900514   -0.93015758501441    7.58423155012933
H        -1.05524685644948   -1.44137517141657    8.87064555672052
N        -3.13513773386766    0.22515626562183    7.99391662767803
H        -3.29565403116406   -0.12610215409715    8.93171663696274
H        -2.19490268633962    3.09050039990262    7.93120913782531
H        -3.66335690629639   -0.32449250953630    7.32633640992167
O        -1.81396146106962    2.39320211089647    6.11644692731807
O        -2.75059587243184    0.24085404739893    5.16244283574848
H        -2.38139050595807   -0.29936034729397    4.46533798169424
O        -0.24790933039571    0.53949672876941    5.31270083359628
O        -2.00828301594087    2.74606715901835    8.81540642573122
O        -1.08156735557084    0.90547298863187   10.17956655900719
H        -0.51311785421995    1.39580729681557   10.77368624513303
O         0.38701971061920    1.96890171549523    8.39423745425205
O        -2.30133424123651    5.04434066905258    6.58811910686745
H        -2.23363079943646    5.95550809185419    6.20242427595343
H        -3.19060305304644    4.75017659426093    6.36299479710713
O        -2.65496394834143    3.96250925743466    4.00024323602796
H        -2.75688557812410    3.15898663803307    3.48297448255843
H        -2.65464720012382    4.71619961098253    3.35317013125349

