74
CSD_code = VOQHOY | q = 0 | S = 0 | Stoichiometry = C29H35BN6OPRh | MND = 4
Rh        9.98021607627136    3.37961440488305    1.45915954460684
P        11.70294319149385    4.72731491343418    2.05062825513864
B         8.81951105020421    3.43462023820214   -1.27714337761689
N         8.93286708946053    4.91141093492750    0.70354124570328
N         8.62465892528750    4.79501432086346   -0.59279475551027
N         8.32899477981349    2.30865282586858    0.87501043045200
N         8.00613941843656    2.44407429632959   -0.41784648862077
N        11.21978709954066    4.08866941810721   -1.14515440739935
N        10.31737093774378    3.08116472312540   -1.17428840775896
O        11.13987093264779    0.96326343709124    2.75289161039400
C        10.73849178914824    1.90920731127008    2.22879786021535
C         8.49233041743472    6.08807125991405    1.13549919431998
C         7.89959302647010    6.76420663051320    0.06619705237278
C         8.00358908058916    5.90718878517076   -1.01613212611098
C         8.58742067566452    6.49854516462738    2.56373319852832
C         7.54110829872218    6.11138375349433   -2.41329071475326
C         7.45220604955118    1.49215560242891    1.44806966739738
C         6.52719549247954    1.08513539518859    0.48304449242234
C         6.90991586004197    1.71574789833743   -0.68880228418093
C         7.52108022564442    1.14453110287693    2.89287402724118
C         6.26557769435687    1.65763763553706   -2.02687416584683
C        12.37866333946265    3.59430828833907   -1.55319904527251
C        12.23802023403352    2.23081509903027   -1.85381724569910
C        10.91048839353709    1.94279686286489   -1.61393127926573
C        13.60854090881176    4.42769223163625   -1.67979113274794
C        10.18415457906776    0.65294793432499   -1.76196233225750
C        11.96969004540158    6.26787419669107    1.09432084231545
C        13.38379990090393    4.00537703775033    1.98707071822377
C        13.60007523960118    2.80758888968854    1.31915120527635
C        14.86941860554628    2.26051119728887    1.25387349880573
C        15.93355234286601    2.90538044832627    1.86078110570192
C        15.72525559541468    4.10014285929221    2.53155191905664
C        14.45779281873877    4.64831163072929    2.59506985460292
C        11.73906516032295    5.29142049052317    3.79248436029237
C        11.67499082273382    4.29446936497004    4.76285900375422
C        11.69918836829727    4.61452795318298    6.10596920411863
C        11.77723023595124    5.94180141852649    6.49880101884316
C        11.83125783413797    6.93971472994377    5.54181392052719
C        11.81341166948715    6.61884302666998    4.19460204549290
H         8.44617155812509    3.44041659300483   -2.40273173693544
H         7.45213400285338    7.73768087066340    0.08241951276346
H         6.52717774086415    1.15881658226327    3.33527761511003
H         7.94097345874094    0.14775570883584    3.02843506615191
H         8.15823113049009    1.86510456960785    3.40854907911780
H         9.09991566497202    7.45360487948436    2.67135127507758
H         9.12333391275214    5.73384551308672    3.12949992338032
H         7.58907439016789    6.60825173860246    2.98709345783637
H         7.17489057308045    7.12756879767457   -2.53409027607408
H         8.35910090580270    5.94005728587289   -3.10992725001580
H         6.73812576042929    5.41778248846553   -2.65966808541557
H         5.69293416088713    0.42776154003827    0.62198780742195
H         5.43369468405467    0.95878268821634   -2.00180906785750
H         6.97551902464427    1.33600201413563   -2.78646763526931
H         5.89226451781224    2.63972269700657   -2.31373346138173
H        12.99908589974647    1.55789388407623   -2.19656584008435
H        14.26739841261507    3.99783758313444   -2.43124993821618
H        14.15118628725727    4.47198307226913   -0.73523973956929
H        13.34747214398855    5.44187207107771   -1.97508674800747
H        10.85882321011908   -0.10515525275789   -2.15184781479729
H         9.79793817581614    0.31507771360747   -0.80009693041077
H         9.34317333810704    0.76301148793776   -2.44539802054664
H        11.14130553151124    6.95374365554850    1.25812115728335
H        12.91545670727493    6.73933260757679    1.35838546215525
H        11.97270087154005    5.97581113163811    0.04541005460978
H        12.76750814688624    2.31443483455481    0.83584855263371
H        15.02730226255713    1.33030423319564    0.72857196677382
H        16.92479159208590    2.47881169876305    1.81365960939085
H        16.55391990270637    4.60403373762215    3.00804325622848
H        14.29844801967121    5.57562319701518    3.12890191912420
H        11.60531249375539    3.26208678392227    4.44537177407549
H        11.65439124035743    3.83216804718289    6.84932503801550
H        11.79338862947953    6.19650163453088    7.54821778601099
H        11.88949061700026    7.97550523907064    5.84469571573347
H        11.85670082653681    7.41083496109766    3.46197900292689

