63
CSD_code = VOQMAR | q = 0 | S = 0 | Stoichiometry = C22H30N6NiO4 | MND = 6
Ni       -2.12556714358018    7.01394378690936    2.69908106119045
O        -3.89383353367345    5.92822647193619    2.82057103329995
O        -2.18553909334242    3.58843634649980    7.32723274582447
H        -3.08967890037375    3.33412392004646    7.54176367338041
N        -1.98081551400992    6.81167204914343    4.54760877298696
N        -4.28160511887687    2.44082783336257    3.34678243158233
N        -0.86070506968687    8.95398559907434    3.22492020553666
H        -0.14143060908125    9.00773493435895    2.51038461246381
C        -2.16475082833482    5.65489909402406    5.07457828180766
H        -1.82334415150533    5.48539420051895    6.09749217282652
C        -2.84649134952340    4.55214152248826    4.46527906910472
C        -3.71617741323997    4.78711175080433    3.35436781861127
C        -4.44380534785991    3.64250103850714    2.86950619198125
C        -3.44431638643074    2.23610142756356    4.36598957145891
H        -3.35920286465367    1.20803963008531    4.69147510359071
C        -2.72233659638455    3.24025845267366    4.96999058680848
C        -1.81285582555219    2.92397335434699    6.12998676994784
H        -1.79764149524465    1.83788882552184    6.29112063240637
H        -0.79160472102042    3.25112933314278    5.91906492237969
C        -5.40722316801859    3.84335216717575    1.74281186351995
H        -5.69331882723501    2.88273215126087    1.32484655578852
H        -4.95252168515782    4.47412181038344    0.98033270528137
H        -6.29769840434073    4.35720886491327    2.10573136283890
C        -1.35752942122171    7.84879783241445    5.33630654358898
H        -0.91556934700064    7.44175615972420    6.25552538637081
H        -2.12896438673756    8.57451251115254    5.62188054188758
C        -0.27837198286713    8.54211313889941    4.49563175695644
H         0.15174658051647    9.38653810473541    5.05667629062061
H         0.50584618632202    7.81422640474390    4.28143324385331
C        -1.61487072656334   10.19740226394237    3.27026815452395
H        -0.97150112331884   11.08755609811385    3.19903671547439
H        -2.15217013983109   10.24207307556375    4.21973432803430
O        -0.35754651395072    5.92786613246163    2.57796099218093
O        -2.06482145336728    3.58881166471713   -1.92932928760624
H        -1.16059289502545    3.33475700335337   -2.14379595772151
N        -2.27003218754009    6.81146890809583    0.85056205763993
N         0.03048209921039    2.44051678579339    2.05151268839746
N        -3.39037546211360    8.95402930425839    2.17336975256122
H        -4.10973299621992    9.00765181241530    2.88783438074163
C        -2.08608782150385    5.65470848405308    0.32357770146353
H        -2.42747829058333    5.48528026528514   -0.69934862712922
C        -1.40439929257390    4.55192722723195    0.93286351447282
C        -0.53516324202629    4.78676669523564    2.04413775919709
C         0.19248053533741    3.64212258259154    2.52900793073294
C        -0.80634249507841    2.23592930858482    1.03189038724498
H        -0.89143806452216    1.20788189781072    0.70634579139175
C        -1.52823724705164    3.24012474090260    0.42784879386235
C        -2.43755538998786    2.92396171159307   -0.73232438091406
H        -2.45256295683533    1.83792305179238   -0.89376282823495
H        -3.45890824132103    3.25085929066081   -0.52145714302965
C         1.15566547317859    3.84284106623065    3.65593659931241
H         1.44074229298530    2.88216598215112    4.07476835469593
H         0.70103858108817    4.47473473872993    4.41761315861426
H         2.04678049656048    4.35566513476989    3.29284988886067
C        -2.89330243713452    7.84852683473298    0.06176918573915
H        -3.33506978526079    7.44143058272100   -0.85754719459932
H        -2.12186853585182    8.57429079915416   -0.22362451804786
C        -3.97233122138290    8.54190860223032    0.90254705575834
H        -4.40250765689545    9.38617868233055    0.34133233260114
H        -4.75653587789317    7.81402803970157    1.11672266173637
C        -2.63659201016519   10.19762544391817    2.12780673978654
H        -3.28015529635969   11.08768985068848    2.19894636421289
H        -2.09920369988433   10.24224722177210    1.17837474014975

