64
CSD_code = VOQMEV | q = 0 | S = 0 | Stoichiometry = C28H29Cl2NOP2Pd | MND = 4
C         2.72049159178234    2.81855943790646    5.74615304353071
H         1.65775488894841    2.81889859844326    5.43951911139404
H         2.92172307458602    1.88218130272785    6.27734911787813
C         3.61954748266763    2.94942135171419    4.51643901628578
H         4.00871641716158    1.96831195544728    4.24202311951321
H         4.46463661173170    3.58352027882833    4.78716982190715
C         2.89952957861117    3.51545027872185    3.28339528934257
H         3.63034018187496    3.57481221293645    2.46663687210178
H         2.11797365656221    2.81214058189376    2.98510704173770
C         3.20708811889590    5.85982164465398    3.86723033800681
H         2.79802940564859    6.83709674204965    3.61107999050045
H         4.16052008026198    5.73890688788426    3.35207800458149
H         3.38186193032243    5.82948308108255    4.95043965372309
C         1.18835170303426    3.41498411170898    8.58296158504826
C         0.14461363277671    2.57833143473019    8.19756234183007
H        -0.34926936969675    2.74283456304380    7.23218750421107
C        -0.29523679340741    1.58308800857620    9.04876526733053
H        -1.11065982303764    0.93859915023546    8.75506577941286
C         0.30318472050102    1.42540466952189   10.28977349214771
H        -0.04640659974310    0.65511235556767   10.96129036328651
C         1.33561536183424    2.26274019190613   10.67718572260991
H         1.78867576003290    2.14657250098185   11.65100900601065
C         1.78445008674502    3.25778689223957    9.82487615612428
H         2.57929520429989    3.92285672376328   10.13049434407163
C         2.64550830384438    5.96147264031976    8.16455355682563
C         3.91350212519122    5.74083002253049    8.69246993905985
H         4.35784337581231    4.75871316520555    8.62551752203468
C         4.60008914614686    6.78719048858240    9.28135711606694
H         5.58277157877667    6.61844195012988    9.69757016519495
C         4.03129199522969    8.05003825436456    9.33864414512904
H         4.57088465975518    8.86186718731475    9.80389321082553
C         2.77674984696723    8.27466293222061    8.79477825919980
H         2.33921061563747    9.26115211761378    8.83242898477511
C         2.08494103314575    7.23328124021675    8.20328891997972
H         1.09584584821189    7.39060658486536    7.78230327909005
C         0.32714665926771    6.66232680787139    3.29759558795226
C         0.40639382234393    7.70206651442112    4.22615980671789
H         0.65895747172806    7.47578521878878    5.27207525723098
C         0.14321365360746    9.00197156651795    3.84204975869206
H         0.20153591067568    9.80250777322269    4.56477448024251
C        -0.21348629667458    9.27422749103565    2.52961277064729
H        -0.43431905393309   10.28808420964612    2.23033234214188
C        -0.30470655258794    8.24491782308207    1.60962693415300
H        -0.60082962147810    8.45511184999080    0.59205002186402
C        -0.03185887020197    6.94004014965673    1.98731267588651
H        -0.12898475456550    6.14203377788475    1.26807873807015
C        -0.15295482756734    3.71976746577899    2.98058214298081
C         0.06059284971482    3.54413532412069    1.61666695360108
H         0.76775724888308    4.17482439497745    1.09735097668103
C        -0.61318419102708    2.54381271228587    0.93921304677601
H        -0.45844654642732    2.41650397023061   -0.12242475010314
C        -1.48341349300333    1.70542835627492    1.61782531666277
H        -2.01194403931882    0.93088897507024    1.08206871816839
C        -1.66922557569243    1.85313365926911    2.98315394076065
H        -2.33628822095929    1.19002575082376    3.51339191220166
C        -1.00268464877000    2.85508532643423    3.66376309753024
H        -1.15418331545434    2.99395367093692    4.73607948306688
N         2.29217997506622    4.82535586790934    3.41091862778339
O         2.97479753666281    3.89328896226097    6.63705659810807
P         1.71123783178161    4.65199220236239    7.34709084819412
P         0.68154373449358    4.99702888260606    3.95966928523933
Cl       -0.89485225586761    5.64444450234740    8.15050108187657
Cl       -1.95419687192832    5.62232927526938    4.93535829975627
Pd       -0.02796298984288    5.16075597900713    6.07756896636455

