79
CSD_code = VOQPOJ | q = 0 | S = 0 | Stoichiometry = C39H32ClN3OOsP2 | MND = 6
Os       12.46749611453883    3.49305882342056   12.02327077980348
Cl       13.77620535672887    2.58826938335141   10.26305245589114
P        11.61423519846223    1.41516895775184   12.63910394345529
P        10.96442998426305    4.34573224427163   13.57543377224163
O        14.79523330258820    2.97472120846622   13.87973954732385
N        11.00007434172872    4.00159546594826   10.59015243437043
N        13.22795453176655    5.32461635194667   11.32941790625044
N        10.39058181194596    5.63542109261523    9.12256041239796
C        11.30342891448242    5.17841158016747    9.97230916777692
C         9.77981736363570    3.67439497782322   10.08917022911421
C         8.91642003789006    2.61033415169673   10.33452410751345
H         9.19192572006131    1.81435101146840   11.01125071363022
C         7.70811183469476    2.59306679942216    9.67963627686434
H         7.02277066306840    1.77501586558186    9.85515644580789
C         7.33896259466287    3.60755417453164    8.78681822479421
H         6.37649281650011    3.54608756184718    8.29849347015095
C         8.17303476707693    4.66615096716651    8.52023334503135
H         7.89805253814302    5.44962473321720    7.83105275836411
C         9.40362816628717    4.70770890702464    9.17266443179079
C        12.52420112757225    5.85454596326844   10.30975456321134
C        12.94596529118274    7.00021557542861    9.63022087022394
H        12.32441046516509    7.36467208987457    8.82892950908175
C        14.12795538265970    7.60039101981181    9.99890082071946
H        14.48554327384786    8.48183553410476    9.48851364361472
C        14.86109459373717    7.03866996227885   11.04108465438687
H        15.79877715573437    7.46645868252902   11.35753815964559
C        14.37647194527167    5.90970272912737   11.66956313598405
H        14.93672095029029    5.45284009665294   12.47523436468165
C        12.81165493920071    0.41258091740499   13.58005944881304
C        13.88579938921135   -0.05817819715868   12.82464984456999
H        13.93301224536012    0.18991764258302   11.77139993852312
C        14.88187372126611   -0.80418478571382   13.42181400162003
H        15.71259731213627   -1.16341612199550   12.83319335411222
C        14.81796197257259   -1.08281346670055   14.77876504306467
H        15.59700994696229   -1.66417285857308   15.24931127607127
C        13.76116477758630   -0.60593890982174   15.53397508661240
H        13.71683299079802   -0.81319588038050   16.59357464800896
C        12.75904976667772    0.14432329384023   14.94115535026711
H        11.94892420785813    0.51764617507387   15.55106556713026
C        11.02421922660791    0.13032291651788   11.49235767387017
C        10.42014341844993   -1.02344565915835   11.98544471894849
H        10.29956364786705   -1.15902781937444   13.05171268631160
C         9.98431329126971   -1.99784521301666   11.10774685924841
H         9.51123845665070   -2.89138228866872   11.48885602918086
C        10.15695883313158   -1.83188172985746    9.74197388621133
H         9.81262145729997   -2.59630582299303    9.06095899950411
C        10.77536949778848   -0.69379324386591    9.25264839326306
H        10.91800646206352   -0.56791623091660    8.19000340998665
C        11.21135971282358    0.28837439072716   10.12431625818632
H        11.70086653050669    1.17744609772565    9.75312664010352
C        11.38807063220858    5.53892040444660   14.88776594239170
C        10.38981341005710    6.18906361212648   15.60805330508486
H         9.35061130371379    6.00511125053392   15.37140667255022
C        10.73021465878648    7.07477091677059   16.61315311256794
H         9.95437036726226    7.57878842794976   17.17059309844560
C        12.06337780126714    7.31881765087121   16.90470880336225
H        12.32444782909258    8.01387773304999   17.68873900924292
C        13.05941422283540    6.67563873164234   16.18889057298069
H        14.09822412679640    6.86689558199595   16.41384809345357
C        12.72251636865298    5.78831493055147   15.18208724550091
H        13.48852933003142    5.27952289515771   14.61352074113078
C         9.48621365351633    5.13446473767236   12.87148031143324
C         8.23988546583400    4.53278848385426   12.75438084355080
H         8.05213600395903    3.56335586317433   13.19123509898063
C         7.22450688321959    5.17829771327477   12.06978904858388
H         6.25962917134534    4.70290242352593   11.97465339411191
C         7.45023212952928    6.41199442721328   11.48589660519449
H         6.66242024071517    6.89754195657553   10.93051701967844
C         8.68972000406112    7.02145635156802   11.60582998808266
H         8.87026821059343    7.98087574846680   11.14552434958012
C         9.70214963324813    6.38629385625690   12.29537263390851
H        10.67879251975773    6.84815212845891   12.38982465805066
C        10.17417923217853    1.65842612913304   13.79487557716923
H         9.28652424563271    1.73770674902747   13.16194459385237
H        10.05008538383434    0.78543200924021   14.44187329336961
C        10.35545590703865    2.93115685814262   14.61740106105329
H        11.14174461434055    2.78505823823125   15.36815446356736
H         9.43478230825204    3.21797371745249   15.13695484188040
C        13.89254629407682    3.18477135717076   13.19193636350355

