26
CSD_code = VOQZIN | q = 0 | S = 0 | Stoichiometry = C12H8CrO5 | MND = 9
O        -1.27975682069759    5.85487219954537    1.63260172664683
Cr        2.74255378338509    4.11336154258423    1.86061710480206
O         2.05299081440556    7.31459178001808    2.81788214112129
O         1.25242201228364    1.57853454456551    2.34046676502699
O         2.95381842832914    4.09691920066547    4.83227805616143
O         5.03386925029828    2.25435237056071    2.24672658735056
C        -0.28331084536073    5.39650761464912    1.13912491334207
C        -0.02748106662553    4.38946272245942   -0.00519212371801
H        -0.31339613936511    3.36124025199670    0.21431009514847
H        -0.46226590467325    4.68882386553806   -0.95976970335047
C         1.43483560058997    4.72499299057753    0.18693652234607
C         2.67972011706969    4.58889709405871   -0.39304971237514
H         2.86940882248018    3.99413648478700   -1.27699826997906
C         3.72017146719026    5.30859549793006    0.24764310109223
H         4.71854996557621    5.26882950430603   -0.17256556373811
C         3.47960596472340    6.20182288378941    1.30392304643916
H         4.28248694981301    6.81696408973598    1.68964872755513
C         2.18669110565434    6.39950013318688    1.84900751427136
C         1.16160246412413    5.62621629633839    1.26415234635881
C         0.83193693508327    7.31691980890544    3.54291971118041
H         0.92186930915614    8.11917743924059    4.27160162806127
H         0.69516904999682    6.36122790948590    4.05800418493774
H        -0.02534839253697    7.50063910849981    2.89225017990812
C         1.79973302260818    2.57165416885984    2.13672479707104
C         2.85690576139301    4.14131245655301    3.68551389078226
C         4.16931834509903    2.99374804116279    2.06294233355747

