49
CSD_code = VORCAJ | q = 0 | S = 0 | Stoichiometry = C15H24ClO5PSi2W | MND = 6
C         1.37772213018852    9.17378726189678    3.56833207820549
H         0.38405797690854    8.83716209763753    3.86139357909586
H         1.70179327813076    9.99399017434410    4.21372518646289
C         1.39609263288537    9.56497551944500    2.12912535878503
H         2.26317523765943   10.12389576110509    1.80107680643217
C         0.45091081499511    9.23696566261813    1.26580650642180
H        -0.43077829859623    8.69430275429062    1.56618340606515
H         0.50904348305226    9.51453327263735    0.22756884613581
C         2.63577518489035    7.51829991390481    5.60969486068742
H         3.10751602316220    6.53052811637600    5.68605629138389
C        -0.38610880005057    6.54560676019934    5.06676133300001
H        -0.68904690640747    5.54147576433987    5.34807654923385
H         0.03209104487518    6.48367637370892    4.06508981768237
H        -1.28869123326730    7.14822932135289    5.01478619687210
C         0.14657264654408    8.90097871642323    6.98844747931339
H         0.80076143296054    9.36626053208633    7.71677037622869
H        -0.80160973557407    8.70992308411842    7.48098879961281
H        -0.03873246954328    9.62523688832615    6.20167579672882
C         1.00469980740378    5.98382608491168    7.74210436844131
H         1.64979251877178    6.32362749838841    8.54346615833771
H         1.39619984911474    5.03738434312035    7.38123405505159
H         0.02684728111247    5.78845734069007    8.17049655318436
C         3.51545770737538   10.53767741133719    6.25149420747788
H         2.48488351017776   10.81133136294707    6.45454904628634
H         3.75137344204475   10.82878800428716    5.23323120783230
H         4.14164335932839   11.13234320860427    6.90958138446267
C         3.65640232399660    8.35807574360407    8.43556642025486
H         4.35326155226500    8.98333802844856    8.98385882831041
H         3.88530538137834    7.32694205541921    8.68290840804154
H         2.66230633738854    8.57643816896065    8.80694838096088
C         5.65437164227611    8.22300419928809    6.14142966295122
H         6.12574615417165    8.96763657005642    5.50831185893729
H         5.71710799914505    7.27186658829059    5.62044031320949
H         6.25114025632838    8.13813109432007    7.04477132264549
C         2.69190848191616    4.19973650409373    1.16014227865276
C         3.09269054953558    6.98469235614502    0.83465874740983
C         0.65598710839263    5.94828487846976    1.71677943500174
C         2.02473867220729    4.61849074280207    3.86993684762032
C         4.43764510529361    5.56091886656812    2.93991972840707
O         2.78340595532532    3.28511232318374    0.48119432841576
O         3.40549925536601    7.65731232485455   -0.03197358270058
O        -0.40797988760729    5.95759874955304    1.29900018023348
O         1.77276479179520    3.95253059327964    4.76555738327326
O         5.50624633684863    5.40796422961600    3.31517790610655
Si        0.86017286344285    7.25558923315605    6.33088694001021
Si        3.84861818999999    8.68581778644448    6.56673335315507
P         2.55526521095178    7.75933694533977    3.80001146432834
Cl        4.23516863082748    8.70951656753778    3.32989297070561
W         2.54618517061871    5.78880222144031    2.34263057464971

