63
CSD_code = VORHUI | q = 0 | S = 0 | Stoichiometry = C28H24BrMnN4O5 | MND = 6
Br       11.66121091889698    5.58397457274478   10.57056678988506
C         9.87101102037243    5.73692857633529   12.92887249865696
C        11.22844019402917    7.73019619046219   12.64655857729622
C         8.75139177979484    8.04396018059205   12.44708992694149
C         7.90712129122860    4.98476882729558   10.44462655314796
C         7.46821814407480    4.22379817519083    9.37277310147892
H         6.92122529294947    3.31892235521744    9.58002077375240
C         7.73100749450073    4.63092032311566    8.06453192242428
C         8.41013285456349    5.84113412775987    7.91781368479556
H         8.66156578998328    6.19261732650289    6.93134934112505
C         8.83475958162111    6.54661898054676    9.03435828101417
C         9.58187938214829    7.80519512708625    8.93520246109628
C         9.70911747289462    8.52295597442968    7.74634712492114
H         9.24666549075461    8.16345295547113    6.84218095254270
C        10.42935080996328    9.70051662378715    7.73267579571290
H        10.54426656786314   10.26415170107711    6.81984309747530
C        10.99842550879168   10.13881707885415    8.91958355499505
H        11.57322812737881   11.04956660601742    8.96301854189819
C        10.81811221100181    9.38383040705198   10.06232856019667
H        11.25034714731020    9.71114160313741   10.99982040299926
C         7.56311263646245    4.52104536420290   11.80589440157901
N         7.79629486419813    3.23790630814866   12.05865550464720
C         7.52815037970640    2.77652537951779   13.26427356984719
H         7.75926588103921    1.73122533642103   13.42095295702559
C         6.98635412369185    3.55502538759960   14.27746682025239
H         6.79836563737204    3.13486195159627   15.25276510936107
C         6.68060405633696    4.87648266094075   13.99488233494814
H         6.22771170705331    5.51218981837341   14.74145611040916
C         6.97105324066114    5.37576005566143   12.73620460861739
H         6.72510155905052    6.39235744239897   12.46876291220605
C         7.31623233951971    3.83734612381216    6.91664714321715
C         7.27063684770265    2.44280004730319    6.98580677998722
H         7.58899341850979    1.94515092264682    7.88919918564382
C         6.88721709624784    1.68298294273625    5.90613184378278
H         6.93190588396059    0.61042525649901    5.98678132076911
C         6.50895091261818    2.27804572021231    4.69193036211480
C         6.56357205044348    3.68052824246180    4.62414408109919
H         6.27851184709693    4.19750891888598    3.72217696707865
C         6.96026001663692    4.43305338995497    5.70528073782526
H         6.95401725979290    5.50968279265478    5.61599431805528
C         5.59410434254888    0.17919410400519    3.79739609635102
H         4.70765377076784    0.04824204194153    3.16469882857867
H         5.28951272225187    0.04628501767595    4.83570328857271
C         6.59128795488172   -0.92922496023520    3.42644452926447
H         6.07826224145770   -1.89684902182653    3.52638345093429
H         6.90343630115630   -0.81295797466778    2.37874315589604
C         6.20618684120004    1.99834927078509    2.26350238032900
H         5.76246304822866    2.99200864556146    2.15100310147874
H         5.65156717299318    1.31423032152439    1.61880609552865
C         7.66816379896534    2.05710861757208    1.77169903898840
H         8.19981567466485    1.15605100046725    2.10391284593152
H         7.67550968379847    2.08807535931494    0.67894057744370
Mn        9.94121094561125    6.99769965276570   11.65960006910390
N         8.61481254152013    6.11077387478787   10.29183519192401
N        10.12969964104415    8.24193429032075   10.08575201465990
N         6.07908851158404    1.52514886376108    3.62445626992173
O         9.96348943657451    4.96796077584810   13.77866493668706
O        12.05120364109504    8.15826428395942   13.32671585947822
O         8.03517958956920    8.75593601651032   13.00648666926291
O         7.70298542012374   -0.86275618078070    4.28840225992083
H         8.32578775365502   -1.56248144650484    4.06832272716227
O         8.35543249032936    3.20984498676997    2.18056599630428
H         8.44775763775998    3.19459068575222    3.14109560544360

