41
CSD_code = VORPAT | q = 0 | S = 0 | Stoichiometry = C12H18Cl2HgN6O2 | MND = 4
Hg        3.52138663840019    0.78160097986504   -0.00179175009937
Cl        5.57294352677071    1.17279662422744   -1.00715706502996
O         3.84535210790045   -3.23871607200254    4.69259759623994
N         4.46307313824219   -0.68895155325385    1.47576276762446
N         5.77235220072803   -1.02082565114137    1.30875193726420
N         2.76592745695976   -1.42690087969477    2.93503624896894
C         6.18861923740285   -1.93863926002704    2.18045760785574
C         5.09137777139548   -2.25433929358189    2.98985255727686
C         4.02485203486971   -1.43336145987252    2.49331118923718
C         7.58925723655843   -2.42504892168018    2.15275479522365
C         4.92065896428315   -3.14406301197056    4.12203818232392
C         6.11908237132364   -3.93882852479641    4.57572987010997
H         6.29020738397387   -0.55341601210959    0.57171886300468
H         2.58935963414788   -1.95516467699503    3.77951007791803
H         2.12767550664443   -0.71734684380794    2.60920447470456
H         8.13621444771953   -1.92543743562426    1.35680369552379
H         7.62074643007560   -3.49866190821800    1.97749025420313
H         8.08775878946724   -2.22309800156591    3.09884472397148
H         6.92113584118198   -3.26906886886320    4.87579402843157
H         6.47779598490925   -4.57129327555089    3.76788144411051
H         5.83449142492539   -4.55953275076591    5.42144417115531
Cl        1.46907570603779    1.17364368231089    1.00275326121108
N         2.58036204582864   -0.69741450874402   -1.47218783852668
N         1.27166824905340   -1.02985087301862   -1.30143832677112
C         3.01436841249888   -1.43739348178905   -2.49474598173991
C         0.85169078792400   -1.94344811526049   -2.17574775443535
H         0.75622754690014   -0.56360713678622   -0.56191407624857
N         4.27142361489769   -1.42932142159353   -2.94166401593134
C         1.94566943740044   -2.25582722885795   -2.99085003532030
C        -0.54917047522772   -2.42906291188710   -2.14514249398595
H         4.44422916655111   -1.95418671752479   -3.78905155073896
H         4.91164178041690   -0.72203616292435   -2.61479930786148
C         2.11153075611160   -3.14011123665114   -4.12798139943261
H        -1.09330087004001   -1.93146040445115   -1.34598671906366
H        -0.58090052843795   -3.50321394440707   -1.97311464275902
H        -1.05039071690797   -2.22378008576338   -3.08908255760337
O         3.18411790316323   -3.23145973963908   -4.70400054845648
C         0.91185754715445   -3.93469166407044   -4.57875481476428
H         0.10781295839463   -3.26478718633713   -4.87285807919553
H         0.55744018151026   -4.57031563698184   -3.77153533324694
H         1.19317836897723   -4.55207842814215   -5.42793345515502

