89
CSD_code = VORREA | q = 0 | S = 0 | Stoichiometry = C39H40N4NiO5 | MND = 4
Ni        2.27759013001939    1.48737099513961   10.66049111721132
O         1.13082066636648    2.41639845818924    9.49139083801749
O        -0.52573522938866    3.89597427471444    9.50731698825793
O         3.87906209393334   -1.65084965859242   12.12472326829559
O        -2.03601372502606    4.05454879600800   14.15971363399127
O        -3.20754564367150    5.07450761146711   12.49540405420512
N         1.79731556959562    2.72160831642824   11.94040001923606
N         3.42172390914461    0.58212150973668   11.79144208683289
N         2.85981660121964    0.27363164863456    9.23118683208935
N        -1.84790420824511    3.40871864413029   11.99248974204948
H        -1.96846528710440    3.74696609869631   11.04217487903955
C         0.35334422620671    3.25087026008209   10.05111446723916
C         0.55332940523501    3.36914970021582   11.58536632656765
H         0.51811870968181    4.41449503179348   11.91310536088049
C         2.38806287603719    3.00074868043835   13.05724523370552
C         3.56708649505769    2.30246721254229   13.51101070165673
C         4.27879220548385    2.83679489189102   14.59807333695098
H         3.93566214023971    3.76264480323567   15.03533054308771
C         5.39899454971975    2.22477637607252   15.10039922026233
H         5.93242920725346    2.65879129334575   15.93187816983214
C         5.83942006322061    1.03798490031331   14.52018250310300
H         6.72172015313398    0.54563868211273   14.90143891768738
C         5.16624267393365    0.48942827216371   13.45790691111587
H         5.52431274780583   -0.42719254217810   13.01969021638645
C         4.01779031873719    1.09304639798410   12.91309872471902
C         3.60806680375376   -0.70886801235199   11.40382087304752
C         3.48666721095374   -0.90031981203803    9.88737153644560
H         4.52051616091363   -1.00675238668155    9.53587870414431
C         2.69232400268797   -2.14117349866200    9.46501948906426
H         3.33249000671150   -3.01770889376525    9.39297921457097
H         1.90785380372452   -2.34844885419586   10.19075108835548
C         2.08679856584331   -1.71462281465531    8.13382074568766
H         1.20904199084572   -2.29664147016486    7.86248772295346
H         2.82049290493191   -1.79712846424148    7.32963266036190
C         1.74222372248888   -0.25615813900166    8.41352331067709
H         0.82079099986222   -0.20372537979937    8.99980459821484
H         1.60828598574365    0.34678673915376    7.51705492972995
C         3.84771802293748    0.99876296910169    8.39471072523960
H         3.30205461267216    1.74241983675163    7.80804048298822
H         4.35163647015051    0.29858343760219    7.71596248687665
C         4.83949272186737    1.69774320584072    9.29089257846888
C         4.46220862157035    2.89789123315360    9.90116241171746
H         3.55140461011003    3.40067532301538    9.58229713255115
C         5.29252496487732    3.49537075021754   10.83625021117625
H         4.99821965724118    4.42290740899934   11.30461757162890
C         6.50211147148523    2.90826956272855   11.16986498854001
H         7.13827877070507    3.36380395714348   11.91343268618119
C         6.89991593135091    1.74557271279443   10.53559202309188
H         7.85304551171748    1.29808736638444   10.77411729337316
C         6.07379519124163    1.14398806867222    9.60020823741706
H         6.40207816731514    0.23816584445079    9.10916991614342
C         1.83175255158833    4.05856700012495   13.94470053644515
C         1.10847979035207    3.70432254374235   15.07737969580317
H         0.99304104102975    2.66171943611381   15.33461598210827
C         0.53320890083140    4.68312238077607   15.86733155089905
H        -0.04239964373305    4.39828821298032   16.73370039506875
C         0.68464909303788    6.01885955590856   15.53867796061621
H         0.22869210198431    6.78245473484552   16.15081179744331
C         1.42289201386899    6.37778316332278   14.42311387673943
H         1.54929721157921    7.41951089121073   14.16747346827078
C         1.99375970019708    5.40302098761510   13.62501717100982
H         2.56811425902354    5.67934710390530   12.75162490164870
C        -0.66188375534549    2.62868264960180   12.22703050663220
H        -0.52290966635636    2.59557313644165   13.31570825432234
C        -0.73270465811423    1.22289556493357   11.68245996905710
C         0.13826927827893    0.25804488517218   12.19458016580048
H         0.76975875367001    0.49070084642607   13.04341001761566
C         0.10515115261617   -1.04315213294229   11.71439801618796
H         0.75883933325333   -1.78445815580406   12.15162719684255
C        -0.78038870352031   -1.38806746451245   10.70575392279940
H        -0.81299092967886   -2.40201756406225   10.33315775528753
C        -1.63578012086369   -0.43037362348138   10.18630078459520
H        -2.32947949634017   -0.69574511630561    9.40199408493405
C        -1.61163320197554    0.86793770050801   10.66750631448523
H        -2.28411767833133    1.60474767617623   10.25828924205311
C        -2.33657626010189    4.18957091043361   12.99525593154869
C        -3.89478945698541    6.00076479336250   13.36886416263170
C        -4.76997877590620    6.82301236226876   12.42233834953243
H        -5.32522476312057    7.56957694906153   12.98240489969046
H        -5.46914772664196    6.17247391938636   11.90416346403991
H        -4.14964010352081    7.31976677716618   11.68135903822310
C        -4.75899628494849    5.24298126403442   14.37633374022431
H        -5.44471963579980    4.57975471743976   13.85357015838400
H        -5.33290383687356    5.94837544007008   14.97091975210136
H        -4.13147753608086    4.64979600271261   15.03547403486538
C        -2.88269429354812    6.90009028390664   14.08036042051875
H        -2.25132011268993    6.30577758725719   14.73533505784396
H        -3.40648572473177    7.64691363650392   14.67051222350568
H        -2.25367034839012    7.40305959867181   13.34870748914976

