31
CSD_code = VORYOS | q = -1 | S = 0 | Stoichiometry = C10H10N4O6V(1-) | MND = 5
O         2.80057825779778    4.65989746913215    3.46665518806447
C         2.47847842089855    2.73944648812316    6.56545956419182
C         3.26916769752104    2.21057371978016    7.60849761522243
C         3.96656301754725    1.04472337055760    7.37195236203675
H         4.58475263879241    0.59994642929547    8.14327106326986
C         3.23828950992101    0.85975798937577    5.21844554661891
C         2.43902362632733    2.04238753602721    5.32501740252378
C         3.25147255607981    0.14409167252987    3.90628405054723
H         4.06013914488828   -0.58098496798092    3.88211907816853
H         3.35986454907058    0.87939097180145    3.10724553982198
H         2.29981072255500   -0.36462751889666    3.75100379856869
C         3.35176988976153    2.87556377228511    8.95783437959203
H         4.08035810451194    2.33246921503105    9.58009561949107
H         3.69004871977593    3.91161703458718    8.86283652018907
C         1.73209449353503    3.95228346640218    6.70327853309074
H         1.72119106150765    4.47079357327011    7.66465103824042
C         0.05124309489280    6.12415529431676    4.75379628385765
C        -0.68234681680213    7.45354998175637    4.84987394998555
N         1.09034952863742    4.46033589832527    5.71103089802719
N         0.43498316400536    5.62654552606118    5.91124862227615
N         3.96245083663484    0.39337408622273    6.20836608331236
N        -0.53272742036297    8.01748223152279    6.07196346556487
H        -1.03994105709039    8.85517946156323    6.30401774773169
H        -0.07201292945843    7.46846284000100    6.78045930680700
O         0.82598734459119    3.54073951809715    2.27746479643732
O         2.10698260272126    2.94007697412366    9.63476182422415
H         1.66781718064220    2.08949711182582    9.52675544918482
O         1.70995702914549    2.40167505340751    4.33179365604539
O         0.23457854035191    5.56701568859718    3.64447178057464
O        -1.32394655847799    7.95881716490147    3.95580764618264
V         1.39442305007869    4.04426294795744    3.61364119014964

