74
CSD_code = VOSBUC | q = 0 | S = 0 | Stoichiometry = C24H46ClIrP2 | MND = 5
Ir        1.41898466130266    2.77188319788984    4.55180045172994
P         3.19707093697466    2.91572845137923    5.95058416588794
Cl        1.58290612207942    4.93014977692979    3.74638237444190
C         0.86545849825963    1.03649290412873    5.64047638455793
P        -0.36955558528188    2.00306918955420    3.34455400850119
C         1.70002564815167    0.67883784570118    6.88500467665519
H         1.80176098715106   -0.41782511439739    6.87748894911943
C         1.04437450087068    1.04059238739601    8.22172837950644
H         1.11460059957783    2.11481080642828    8.38072465702878
H         1.60126219726424    0.54939212729766    9.02489570404425
C        -0.42084073933110    0.64345636976522    8.29201840353468
H        -0.52262756051617   -0.44192338085932    8.21119866152037
H        -0.84081577220328    0.94846038453156    9.25286486687949
C        -1.16518992527733    1.31511756558778    7.14921849032397
H        -1.02638321829334    2.39683277961524    7.20421246124043
H        -2.23560346428816    1.10566608839544    7.22132716756241
C        -0.64147546376171    0.79926026299022    5.80888199668877
H        -0.77563606365496   -0.29159734140841    5.82484083663984
C         3.12059395370056    1.27873123713251    6.84393164966717
H         3.77062837820113    0.60630820518007    6.28625059464932
H         3.52435626302886    1.34643118127583    7.85357704925012
C        -1.49031180692347    1.38920120661455    4.66427992684764
H        -2.04455400580135    2.25386548814275    5.03833784970738
H        -2.21653513039533    0.66515712590563    4.28616610410965
C         4.93264907911100    2.84881576993060    5.17124587486826
C         5.16674072928482    4.11545595137977    4.34031098167083
H         5.55225954437175    4.93514943101830    4.93503137590923
H         4.23873075096258    4.43175628486072    3.86613362608747
H         5.89387605234367    3.91443476502144    3.55484266940170
C         6.05547743441035    2.64007298417207    6.18370518071311
H         5.89571181311521    1.73806866554088    6.77144882827626
H         6.14215856669042    3.48548519207411    6.86086195647225
H         7.00446374358312    2.53643582651797    5.65792815006379
C         4.91315945085208    1.68557395525200    4.17298080221463
H         4.84591891798849    0.71365175509119    4.65523147568117
H         5.83112852890314    1.69054736483949    3.58692285270869
H         4.07176858873933    1.80425784482844    3.49253153933130
C         3.13673099237070    4.26735115565954    7.29750510307077
C         1.65826226657005    4.65968136879143    7.39205101774191
H         1.01896915654544    3.79890767145452    7.56476536750084
H         1.34459092331120    5.12713188561644    6.46049352672764
H         1.50658567688223    5.36980799994747    8.20411916072556
C         3.65356442658861    3.81782358404771    8.66409635490914
H         3.00188414250637    3.07593514719901    9.11790233982379
H         3.68610787220520    4.67878366573065    9.33159668742275
H         4.65881870488032    3.40796088133686    8.59881366311370
C         3.88716997226805    5.52514808723196    6.86167577651247
H         4.96464655783383    5.39767891486961    6.91743807823599
H         3.61825043947845    6.34731942923048    7.52511659300661
H         3.59898356028340    5.80388784831122    5.85149024393045
C         0.63886878603036    0.43713889547010    3.12614784359257
C         1.46276922943380    0.68670836706834    4.39088895455506
H         2.42439354512351    0.17754291979943    4.40735837580661
C         1.57064512642394    0.58072861918962    1.91901923563186
H         1.03771314677769    0.40606142477465    0.98622937024569
H         2.38321464054006   -0.14340603229931    1.98140108483108
H         2.00277063008529    1.58158462038677    1.89425203412558
C        -0.03371350327945   -0.93299657367941    3.07420298730808
H        -0.53825940783974   -1.08212110476699    2.12215480037355
H        -0.75790595611291   -1.07449876485475    3.86923965400395
H         0.72912656880986   -1.70542108804962    3.17483647371109
C        -1.47835578219275    2.45225533023328    1.89294833559870
C        -0.58635696258345    3.16405857064181    0.87487051799590
H         0.11458437417288    2.47431002491650    0.41133622774234
H        -0.01771691192285    3.95342921882219    1.36589397286758
H        -1.19090558011126    3.61422812166789    0.08846919519372
C        -2.18498129420058    1.25840428665163    1.26199663909940
H        -2.75487822157372    0.69921717273830    2.00173877986014
H        -1.47012404155053    0.58735462838340    0.79161482981584
H        -2.87685789955675    1.60495649599042    0.49477260192155
C        -2.49121771981927    3.45596707004834    2.44867558233371
H        -3.22014588850350    2.96925090000578    3.09411318200615
H        -3.02876351497813    3.93912258150231    1.63377790665093
H        -1.97370526607369    4.22810214021686    3.01897637851674

