35
CSD_code = VOSCUB | q = 0 | S = 0 | Stoichiometry = C8H20N2O4W | MND = 6
W         2.92562810762339    0.39925959674247    1.87204184538143
O         1.65304983174878    0.21719577295047    2.99475926333061
O         2.29149700379716    0.79411728527382    0.08498908695520
O         3.59019445840909   -1.30184949048799    1.22928615108772
N         1.87290054769190    1.86456692134043    0.87483583956717
N         3.84806136941697   -1.29469110914282    2.59975600409205
C         2.52008800674984    3.11299324992258    0.44806882417567
C         2.63140971261814    4.04961855606475    1.64571762603355
C         0.40216588770882    1.91607270351298    0.89295255052040
C        -0.22302073112853    2.02119805243420   -0.49746481856792
C         3.09009775533887   -2.37639773791960    3.24920394283317
C         5.29441479955113   -1.32483077759042    2.85831406319768
C         5.57664148402216   -0.64219378240688    4.19175884177071
C         3.38356280274737   -3.76091704967743    2.67363456621512
O         4.20537304196603    1.43303720322485    2.30239321258985
H         3.52842380050118    2.82671867132952    0.11543407725116
H         1.98341781516232    3.57858065736958   -0.38769754889839
H         3.28617975225888    4.88463211702038    1.41259125807841
H         3.05813496284722    3.47761774358385    2.47766433625578
H         1.66037512826626    4.44127221438918    1.94004132769403
H         0.08558104858347    0.97982299056111    1.37973741135018
H         0.10363050101336    2.75363377203048    1.52920952703594
H        -1.28507109125588    1.79915432939782   -0.44127541958382
H         0.25210243959385    1.29761963880133   -1.15760220964834
H        -0.10591435709049    3.01718198931300   -0.91916118421756
H         3.30150260815313   -2.33695884763731    4.32117449283612
H         2.03001623153512   -2.11985800558246    3.09428818972914
H         5.68584552812852   -2.34918737816471    2.83143637089923
H         5.75348059775608   -0.74122903168265    2.04708872535349
H         6.64187025267813   -0.46009634074624    4.30550090531059
H         5.23583359409556   -1.24474884786838    5.03056987984252
H         5.04451606986788    0.31601976415590    4.19428938563799
H         2.63008070345639   -4.46673132059244    3.01171811943751
H         4.35842981730083   -4.12997279341580    2.98459024169881
H         3.35390051888725   -3.70935071650271    1.58675511475544

