66
CSD_code = VOSCAK | q = 0 | S = 0 | Stoichiometry = C28H28NO8V | MND = 5
V         1.89510334366502    0.59342272014551   13.52420633941619
O         0.97270736908697    1.28125941207012   12.50543221695909
O         2.97062374597682   -0.44897331109674   12.66093672000931
O         1.12465725489697    0.50103908925310   15.04887938057160
O         2.98496499449284    1.71982317085533   13.97538838187821
O        -0.68561632839904   -3.15469543312612   15.11226961825364
O        -0.45357587257372    0.56792421978991   17.57890668732438
O        -2.42539551647981   -1.62861159845573   15.41707443444757
O        -2.45012307572490    0.03102982317720   18.65814118916872
N         0.62607520574768   -1.21527945160344   13.30360047296386
C        -1.42894822449091   -2.12252799231085   14.54581880012494
H        -1.99555605680479   -2.47148654533031   13.66684622526379
C        -0.47313672484596   -0.97765502290001   14.17752916849165
H        -1.06337901499947   -0.15738405482341   13.73814877164245
C         0.20455663404693   -0.42040748517579   15.45020960007227
H         0.71144843245057   -1.24557843178682   15.98554652485647
C        -0.92892380539274    0.09845752989516   16.34067835410397
H        -1.45440378917819    0.91447609699840   15.81043060341325
C        -1.89507695781236   -1.07074803701837   16.60528812267113
H        -1.33848710539971   -1.83738631018446   17.16565710307437
C        -3.01477972620172   -0.53001703410874   17.49577780550731
H        -3.59032047289997    0.22240702071099   16.93563051343754
H        -3.68399612398664   -1.32453314419579   17.82834835588176
C        -1.39010273374014   -4.39421937503073   15.21875352305397
H        -2.38057611166652   -4.21840376619769   15.65369970703769
H        -0.79009129638911   -4.99306018050086   15.90819431865757
C        -1.50050509661109   -5.07336939066256   13.87815839920901
C        -0.35822931776612   -5.58992334195517   13.27585683931561
H         0.58702602423207   -5.52599700335578   13.79476387068930
C        -0.42934039299255   -6.17295660554791   12.02344680614384
H         0.46227580297678   -6.57932674920631   11.56845001205912
C        -1.64216349104287   -6.23913812544968   11.35660893320980
H        -1.69814300262869   -6.69339658255747   10.37856831401231
C        -2.78207820190481   -5.72219698162691   11.94751463880328
H        -3.72888725343057   -5.77036518294333   11.43058378035220
C        -2.71181555586851   -5.14005694230206   13.20250100585354
H        -3.60369212274614   -4.73896252358675   13.66282882878407
C         0.75986519781227   -2.21900588955521   12.53705457882210
H        -0.00063312027137   -3.00433808980769   12.46607996936842
C         1.93085453656041   -2.37503518689871   11.71637566137819
C         2.03042648502071   -3.44392836294072   10.81958693055729
H         1.20196590663285   -4.13491988902736   10.74888762764526
C         3.15080842365593   -3.61507312628877   10.03861609289614
H         3.21376049283534   -4.44057134439271    9.34665814758736
C         4.20648913079395   -2.71321713447265   10.14687746254952
H         5.08761743137832   -2.84506786194537    9.53620940618179
C         4.14028006166399   -1.65496190324323   11.02441153627479
H         4.95628628643778   -0.95179519822481   11.11389594702671
C         3.00421293484982   -1.44806242956277   11.82979766889565
C        -1.50812356608401    1.03847857635261   18.37797058323014
H        -2.02799558077512    1.85810394106150   17.82438708187627
C        -0.95312573807298    1.57344867367142   19.67670974387953
C        -1.75774543141571    1.62790606387714   20.80618835588155
H        -2.76947687063759    1.25853759888639   20.75123282327242
C        -1.25462285944738    2.14100648046377   21.98874115750613
H        -1.88305522082368    2.18044667517111   22.86630095454305
C         0.04914826424912    2.60408582810424   22.04801917360152
H         0.43953530712785    3.00519583054306   22.97193733253910
C         0.85115987617214    2.55000939655955   20.92051818923047
H         1.86945139685146    2.90733324146918   20.96393204397952
C         0.35347133590395    2.03725359361960   19.73532637563624
H         0.96935703417091    1.98208816404866   18.85205348777379
C         3.32078995719591    3.04037018277116   13.87772361903641
H         3.09762710518997    3.54990063007705   14.82799968897372
H         2.73060620838399    3.50461186881479   13.06857181852639
H         4.39506957905373    3.14881719100422   13.66316217462166

