50
CSD_code = VOSDAL | q = 0 | S = 0 | Stoichiometry = C16H22MoN4O4P2Si | MND = 6
Mo        3.77975615119833    4.95446300657036   17.49267081573218
P         2.54988819164571    7.02195183288243   17.25369467247069
Si        3.92753932280279    8.22544476833893   14.69338485085524
O         1.49276765823310    3.54578872187385   19.01175567196967
N         2.77593571515254    8.14126506721361   16.04057588158378
C         0.97087152638267    8.98304832185226   16.96606686471252
P         5.55602164622263    6.05666786375823   16.28140659771906
O         5.33674028207080    2.30413511539451   17.76223107582806
N         1.85207515356570    9.12734590677551   16.01256708354382
C         1.15863793066099    7.85147275088898   17.79961681205113
O         4.92403518071515    5.69885788417085   20.28536202327496
N         5.36280634718434    7.31988283378788   15.21350463074592
C        -0.14902347845018    9.95741809170483   17.13760788820342
H        -0.07575215571323   10.39911011118414   18.13602582660616
H        -1.09496543155312    9.40907753662432   17.09738033176607
O         2.56561591506548    3.85774169107569   14.85046136164024
N         6.48523698799262    7.65475451927687   14.53995079127793
C        -0.13454189410305   11.05277649163197   16.08036825261426
H        -0.21705357367761   10.61683657859561   15.08896789058352
H         0.79863804058087   11.60608955489242   16.12808453222166
H        -0.96361816372320   11.73877696225831   16.23691598480974
C         0.31017007231051    7.46467919342054   18.96275876289700
H        -0.71958434443044    7.29318614142866   18.64742224330373
H         0.30117762028791    8.25353937583757   19.71579409393263
H         0.69165827096276    6.55023110756718   19.41815873659645
C         7.49467331508994    6.89902647297239   14.88638483961549
C         7.20763532188329    5.91258582469734   15.86101199641960
C         8.82240283301955    7.08486019291939   14.22724965378428
H         9.61885676278408    6.88019456709477   14.94472976633202
H         8.90124469215366    8.12063524007054   13.89593565161474
C         8.96168514122385    6.15425128779852   13.02157371619727
H         8.18064254868626    6.36687018399418   12.29599309645889
H         8.87499167265604    5.11351418139203   13.32482772736399
H         9.92903932462518    6.29635185821917   12.54610397758361
C         8.16609297249222    4.93849299237173   16.45918119547335
H         8.58204005501542    4.28119739185437   15.69574713283093
H         7.65669744140557    4.32479776898258   17.20336025869841
H         8.99459716973206    5.45654023671525   16.94354982489034
C         4.42811647026902   10.03332780333205   14.46694161208452
H         5.19916155924955   10.11621040970839   13.70983015963147
H         4.81575829443206   10.45955843049109   15.38786524252587
H         3.57241817878341   10.62352656288502   14.16049135348773
C         3.16680393352195    7.32050074232407   13.20456871815038
H         3.85772394921226    7.31059336248044   12.36732898141579
H         2.25544970245330    7.81310469433654   12.88029088348405
H         2.91972671532505    6.28759281098977   13.44463878500818
C         2.32696441945782    4.08471200583892   18.44587373322621
C         4.77752469696246    3.29471664924000   17.65062036950835
C         4.51757751332223    5.48859313742894   19.23989107948680
C         3.01844234485857    4.29570376284362   15.80377656780621

