44
CSD_code = VOSVAA | q = 0 | S = 0 | Stoichiometry = C13H26Cl2P2Zr | MND = 10
Zr        8.34155300126985    0.65552693731925   18.90171914514553
Cl       10.01439229024828   -0.47371279957742   20.23734884236540
Cl        9.14222874120610    1.16246918109269   16.67953827383423
P         8.47766706713904   -1.69944993726815   17.66742683181468
P        10.17214944856540    2.51259776732374   19.44517807037038
C         6.94874193929967    0.86791257121485   20.89637301481604
C         7.04910974759600    2.13538816642486   20.37043804789730
C         6.81586242361482    2.37746401422840   18.95319531591527
C         6.05585928167971    1.37193770734629   18.25182078740181
C         5.92230099457512    0.11019644883386   18.77693711116356
C         6.58383695118560   -0.23825644024896   20.02791987526194
C         7.26229780203043    0.57671017645396   22.33807387978412
C         7.65288451188314   -2.03800459895941   16.05539645491953
C        10.22485040220598   -2.01312257187512   17.19132147279923
C         8.12092506773504   -3.25878728876431   18.58335318061375
C        10.73517809288045    2.90858704021196   21.15482039225953
C        10.03150404555198    4.19963397863720   18.71706954954906
C        11.77270010529855    1.99078095570789   18.70790837442950
H         7.28360173350347    2.98029594249374   21.01564733156121
H         6.77839272840158    3.40265811201781   18.59513097195449
H         5.57244767345944    1.63489711081768   17.31467225404363
H         5.30756550376627   -0.63601386296201   18.27857271410895
H         6.35566750774107   -1.19562876437050   20.49090679446064
H         6.45032791137943    0.01890935946352   22.80538362979978
H         8.16810748865902   -0.03252527762881   22.39853621656960
H         7.42334405374877    1.49530769438261   22.90006162629107
H         6.57219545222159   -2.05737812912050   16.19140111802134
H         7.98474568236364   -2.99109946686361   15.64399729690134
H         7.90761002540549   -1.23094184810545   15.36926053467435
H        10.84257100368825   -1.99280246438751   18.08962734902050
H        10.31615754670113   -2.98247686067922   16.69905457943712
H        10.55087001615390   -1.22075804174791   16.51711021960737
H         7.05313248664363   -3.32735267983232   18.78851694917854
H         8.66169347652939   -3.22453422547916   19.52943855555860
H         8.43664732371257   -4.13049336695089   18.01049812078836
H        10.97708641660566    1.97215401853544   21.65628876742930
H        11.61345645350044    3.55332327937668   21.13253847373038
H         9.93432025772148    3.40511008393774   21.70116875003451
H         9.82033225704749    4.08953048661032   17.65312353088293
H        10.95418988741247    4.76370093766631   18.85241766733454
H         9.20716641305520    4.73509339670939   19.18697304202326
H        12.07713336657843    1.04765386143996   19.16231607606391
H        12.53642888698126    2.75051148562330   18.88063574216465
H        11.63196653301635    1.84078791089476   17.63708306806907

