40
CSD_code = VOSYOR | q = -1 | S = 0 | Stoichiometry = C11H20CdN3S5(1-) | MND = 5
Cd        5.11850929274837    2.54969921322665    9.89782431106727
S         3.67380166866454    4.74586261831651   13.63434336745568
S         5.61516673980319    5.13874143879043    9.71848853000738
S         7.42590337840489    3.19899350891203   11.00911001014086
S         5.19687984806076   -0.05866592105171    9.38230265641101
S         3.49933446083617    1.85708320340052    7.90326062703915
N         7.02681778555976    5.65689421818513   11.88079430254918
N         3.34193751849618   -0.75987359415389    7.64700128855513
N         3.94666019829288    2.82039358890625   11.67223689945977
C         6.69829573790651    4.73808978302223   10.96801344119436
C         3.95635516554561    0.26187698602743    8.26756154148631
C         3.85298194416524    3.66001024707804   12.49038319204836
C         6.32558115118245    6.91973639483776   11.95502490361605
C         7.00865595380755    7.98962592511592   11.10859545722636
C         7.97657322145305    5.36391326936297   12.93392013509388
C         7.31140083126783    4.66885117630505   14.11828152776941
C         3.72650825355206   -2.13217269269885    7.89537674035017
C         2.97866095668896   -2.71932821271429    9.09000675703483
C         2.24946849097812   -0.53358493700903    6.72659813925917
C         2.75131373076945   -0.31096373483869    5.30187718250708
H         5.30348721066338    6.76938507634306   11.59727584678128
H         6.28540470244071    7.22379018827311   13.00371494685564
H         6.47380199516789    8.93172245087656   11.19700071344197
H         7.00594555913883    7.67945349574675   10.06716900861178
H         8.03855742825883    8.13558171779750   11.43005836367710
H         8.75586841920428    4.71850354365857   12.52087653614519
H         8.42797111828311    6.31030478189669   13.24605706582332
H         8.03028698773227    4.52439413751484   14.92125759213750
H         6.93327259434816    3.69908467942551   13.80471138626993
H         6.47319141216073    5.25452545056370   14.48847901354578
H         3.51927669584741   -2.71106432705040    6.99084611718970
H         4.80042004109676   -2.15655545768194    8.09495386376717
H         3.27553810953918   -3.75331695658200    9.24590990385657
H         1.90301149077044   -2.68025100106922    8.92946443011355
H         3.22027566544687   -2.14656634896637    9.98099118733853
H         1.58558040551359   -1.40162130861945    6.76691616773353
H         1.69904775701457    0.35106992235846    7.05616410936705
H         1.91121447210762   -0.16511025666395    4.62780690127503
H         3.33495544154345   -1.16394635287769    4.96090586663786
H         3.37858616556955    0.57563408604074    5.27823996916222

