28
CSD_code = VOSYIL | q = -1 | S = 0 | Stoichiometry = C7H12N3S5Zn(1-) | MND = 5
Zn       -0.73897205589316    5.47209163223325    2.45971323043401
S         1.33429499657637    2.35700137660704    4.77559963229613
S        -0.01565472419884    6.59663562577096    4.60254605856188
S        -2.33949523167974    4.83690751049310    4.30776918897641
S        -2.02361022765595    5.10189766567653    0.31108972837241
S         0.30318448123080    6.86332486154310    0.61868206351555
N        -0.78587561914460    4.86736356533067    6.44560856209503
N        -0.78701333269455    6.26621281306785   -1.71104725107199
N         0.40119583180245    3.91976914526918    2.70454299817668
C        -1.00884803510796    5.36485925451798    5.22478039740660
C        -0.82665631208883    6.08623806264443   -0.38094068510664
C         0.78693573478016    3.26476792529736    3.60087744775165
C         0.41632548755707    5.17325692271223    7.18151589415173
C        -1.49381092828534    3.71045094131482    6.93597712450537
C         0.18958027771119    7.10547347323989   -2.35668198025893
C        -1.72820656840745    5.65079999930013   -2.61107456834780
H         0.17326854519904    5.26635649024567    8.24134739695656
H         0.83917549967194    6.10634228561389    6.81872589695446
H         1.14989245044502    4.37149856168857    7.04870599247505
H        -1.72247235897058    3.85094046112349    7.99408603259522
H        -0.87360242520068    2.81626439832323    6.81617773959557
H        -2.41609064782919    3.58237916727396    6.37535632805263
H        -0.30805402120679    7.93968016966149   -2.85981195804278
H         0.74249236596507    6.52484319840692   -3.10005224888624
H         0.88025397775004    7.49421084643229   -1.61315907032668
H        -2.30471879153825    6.42031154041481   -3.13270363443444
H        -2.40482314478283    5.01448416002368   -2.04695685026771
H        -1.19349522400629    5.04893794578558   -3.35097346613001

