38
CSD_code = VOTCUC | q = 0 | S = 0 | Stoichiometry = C16H19O2Rh | MND = 6
Rh        3.25265103802122    1.53344488229320    3.22335885107522
O         2.51993824646837    1.35466710086153    5.07505148375395
O         3.74073902251319   -0.42842364521448    3.29184197507612
C         4.66462838731627    1.85733192263525    1.69054338304678
C         3.42321800303159    1.62507824687523    1.10712704545745
C         2.57792267076463    2.71901891404791    0.48751173048077
C         1.56914013329403    3.30618216322247    1.49299922078709
C         2.05780715181204    3.25156756781653    2.92308364263402
C         3.31738066718156    3.65638964601952    3.34649425011005
C         4.34789618006781    4.27528705290486    2.42502595760429
C         5.30498709175174    3.21988478908905    1.83920932528678
C         2.48581411710851    0.31795815422401    5.82387116632852
C         2.97583068474057   -0.99135580145342    5.48509195270179
C         2.85587885866553   -2.02209590878934    6.44655960632782
C         2.29469513639525   -1.81448026341868    7.67382972515190
C         1.81368427497474   -0.54111052798886    8.00941555282376
C         1.90596650696704    0.48293513648302    7.11609221217309
C         3.57347918020002   -1.25864717935006    4.21214751319828
C         4.06352500610957   -2.65797904843813    3.90281163209758
H         5.38215636518139    1.03625355046445    1.69253538916443
H         3.23552497489217    0.62639962014202    0.71387141289131
H         3.23290340628788    3.50024833983136    0.10095958751933
H         2.02941719924518    2.30884324100101   -0.36249357782169
H         1.33256290929193    4.34266748228473    1.22959248638032
H         0.63850672702579    2.73692293926788    1.43447711574000
H         1.25727533606847    3.23912365915216    3.66215106708469
H         3.43188175975947    3.90951093864079    4.39965320404417
H         3.83498505565897    4.81263253192432    1.62695110093842
H         4.93183376638941    5.00858774311533    2.98418559791035
H         5.68444224015522    3.55219023768287    0.86679613716050
H         6.16592971015194    3.11514294462797    2.50362771312756
H         3.22149042851138   -3.00749807557562    6.20570742665894
H         2.22009637866565   -2.62331372083984    8.38468690116492
H         1.36960671456304   -0.37563977224840    8.98063461376051
H         1.54291394343665    1.47159124306812    7.35522342412587
H         4.84138969161012   -2.95563398569607    4.60212080403093
H         3.24573712696610   -3.37256059364810    3.95853050309556
H         4.47196390875580   -2.66382152501342    2.89462286690914

