43
CSD_code = VOTCEM | q = -1 | S = 0 | Stoichiometry = C21H15FeO3S3(1-) | MND = 6
Fe        2.10068392270411    2.10081460436401    2.10062221385960
S         3.36883405178615    1.04225203172872    3.80881972668596
C         2.54303864005243    0.42698200623643    1.75002205179750
O         2.68770184538999   -0.68068671854868    1.44779252883691
C         2.35714060399288   -1.30519023337510    4.77151490540655
H         3.18690034454979   -1.76595595189627    4.25659826023294
C         1.44715755073909   -2.06905088324939    5.47792449486616
H         1.56639722229029   -3.14352005463310    5.51892093032115
C         0.38346426513372   -1.46445368780779    6.12708776120720
H        -0.32962840395082   -2.06513411108040    6.67523726247232
C         0.23484452221477   -0.08745894522859    6.07103572917058
H        -0.59273421767974    0.38905370069926    6.57799883473064
C         1.13871588378462    0.68313235579271    5.36651758662634
H         1.03093355745304    1.75785679078458    5.31643348141892
C         2.19729925881647    0.07314397778249    4.70358892955412
S         3.80866926282133    3.36902919150869    1.04160367442550
S         1.04228037002683    3.80910707637796    3.36860991380060
C         1.75052334505999    2.54334364901373    0.42671056373671
C         0.42681497228994    1.75000409459096    2.54240227378891
C         4.70365263879544    2.19708396952150    0.07313448581599
C         0.07321905412287    4.70424301862180    2.19732701063232
O         1.44832732703464    2.68778333483117   -0.68101773350312
O        -0.68104347504362    1.44835706171892    2.68665361155382
C         4.77096963934734    2.35577249680831   -1.30535882734967
C         5.36744896653635    1.13944591661818    0.68380659154285
C        -1.30513820035428    4.77198731452356    2.35705571727517
C         0.68321203757141    5.36742129232523    1.13890362593166
H         4.25540415278649    3.18484773465742   -1.76664374890375
C         5.47759291741702    1.44551588253928   -2.06871357399474
C         6.07225065499569    0.23534794397770   -0.08627964260934
H         5.31788239821036    1.03256329899285    1.75865477076013
H        -1.76590684963691    4.25683684274231    3.18666871417615
C        -2.06900333085541    5.47852838000831    1.44718311999340
C        -0.08738121251320    6.07206863306710    0.23513516854003
H         1.75794901085570    5.31746713803034    1.03116742113961
H         5.51802377543845    1.56381479620252   -3.14331193414746
C         6.12765567944825    0.38277883126614   -1.46342710482660
H         6.57975736180892   -0.59165441402531    0.39073592517735
H        -3.14347503560106    5.51949568958340    1.56642532255736
C        -1.46438877177000    6.12798957561082    0.38368239051815
H         0.38915014851146    6.57934192702360   -0.59225381956090
H         6.67585586794347   -0.33062536992943   -2.06368094123859
H        -2.06505175252718    6.67631981222578   -0.32928767242223

