58
CSD_code = VOTHER | q = 0 | S = 0 | Stoichiometry = C24H27Cl2PRuS3 | MND = 6
Ru        3.63870721676911    1.55763042018821    3.32808839607278
P         1.57274466059042    2.52835683694118    3.58096005568855
Cl        4.83743778888963    3.44657839602937    4.15751097068971
Cl        3.41128284894838    2.34644690368807    1.09771005771625
S         5.78295396543623    0.83207289967066    2.77578858665109
S         3.89665010429493    0.59242282130501    5.40399382123599
S         2.80593720013062   -0.44965035793631    2.53584528099314
C         5.56384618027187   -0.87600610937426    2.12130491598073
C         4.19609667435417   -1.02487497657771    1.49270345764516
C         2.90995557786396   -1.62974371487934    3.96109523366288
C         2.85422443020087   -0.91588517595323    5.29404595145119
C         5.57916722806987   -0.18342790781382    5.38670299082295
C         6.50571919210074    0.52402655464202    4.42468230802890
C         0.31489901897287    1.48863530560128    2.78010996361964
C        -0.25618870364356    0.41431319642626    3.45722386705059
C        -1.11119037752242   -0.45024438252647    2.79928215097406
C        -1.38672973045822   -0.26247713872689    1.45448012418917
C        -0.79949444959718    0.78838571538976    0.76878361110173
C         0.05136220188711    1.65955492921153    1.42409154635856
C         0.95540903317936    2.80117521896521    5.27505965711554
C        -0.38559322572186    2.73038358387429    5.63673660114330
C        -0.76377286642820    3.00654830316570    6.93838290568303
C         0.18566595928992    3.36491452416045    7.88150646666840
C         1.51980205827115    3.45666361973371    7.51985598362499
C         1.90468543939294    3.17715063260440    6.22156003296599
C         1.24285020918936    4.17454973159811    2.87999319252124
C        -0.07695571108979    4.59185584637160    2.71976163552229
C        -0.34562856623045    5.84825853775511    2.21281878260108
C         0.69556847764294    6.69694926352458    1.86933994841834
C         2.00651490079580    6.28800530339241    2.04024211475398
C         2.28410859405568    5.03066283201548    2.54838144562156
H         5.73088336158687   -1.58225933303050    2.93391252553837
H         6.33668292174809   -1.01806225259218    1.36499570468944
H         4.10675076587678   -0.37190439954309    0.62121997794997
H         3.98821173690217   -2.05663878666494    1.20685891408145
H         3.82338639348550   -2.21063396543474    3.84575232373780
H         2.05231176782127   -2.29468308496566    3.85501577794472
H         1.85109426803177   -0.53300983069926    5.48272703083983
H         3.14943846486254   -1.57219462788711    6.11335002101552
H         5.45712466351768   -1.23847536760509    5.14445151504288
H         5.95597061179467   -0.09301810917185    6.40576392807323
H         6.71950079236885    1.53548926343093    4.77851335711011
H         7.43683469261150   -0.02546877928709    4.28308952027490
H        -0.03705400516920    0.26610011862676    4.50738381482218
H        -1.56181531120074   -1.27432763908368    3.33487165670084
H        -2.05354578116254   -0.94002801288000    0.94111040407213
H        -1.00201807816896    0.92684557939554   -0.28294186899269
H         0.53005358108596    2.46763712285101    0.89004259793958
H        -1.13422443680835    2.45600910582151    4.90707565101938
H        -1.80624581952941    2.94541030054908    7.21720105156954
H        -0.11739010901351    3.57846764756341    8.89630421349436
H         2.26044262665805    3.74831607904402    8.24975011301900
H         2.94272874517076    3.25939855565968    5.92260953443157
H        -0.88990012946553    3.92793701257269    2.98029329393606
H        -1.37022255189227    6.16670441259780    2.08176374118629
H         0.48059363450025    7.67666883111159    1.46713880431965
H         2.81927240567547    6.94728709299883    1.77360021230870
H         3.30679945880353    4.70820145415562    2.67640412730173

