32
CSD_code = VOTJAP | q = 1 | S = 0 | Stoichiometry = C13H15FeO3(1+) | MND = 8
Fe        1.11759920021184    6.07869615937307    2.95597775639372
O        -0.58204711073948    8.44766513169636    2.95663921753554
O        -0.41284329267488    4.77433404966236    0.84697228367974
C         0.08043134636847    7.52987168629343    2.95578409541198
C         0.18353971062965    5.28099504537372    1.66505652861176
C         3.01648695463021    4.94090022108369    2.95601071203777
C         3.02151508834456    5.78681843030647    4.11923816874499
C         2.93758615075217    7.14317457838166    3.67808391797622
C         3.30494222167859    3.47702120292066    2.95602639391784
C         3.27880818229058    5.33950442215472    5.51598282578280
C         3.11572692420569    8.34649538535910    4.54036907129129
H         4.38558882289552    3.32505397572070    2.95601141440153
H         2.89797762136695    2.99058515241997    2.07393871406046
H         2.89828895812372    4.33772122058460    5.69543912952605
H         2.83984011655237    6.01750846925498    6.24276128199154
H         4.35741192986242    5.32209295470022    5.68338740547109
H         2.69281580950019    8.19487820763134    5.52972208842152
H         2.65937386202917    9.22793389802137    4.09862264374584
H         4.18272909877863    8.54380633941115    4.65782240660246
C         0.18367734000405    5.28014388106243    4.24646539748394
C         3.02149359845785    5.78680464816864    1.79276489330532
C         2.93756297416939    7.14316512342411    2.23389683500807
H         2.89800470580940    2.99061383525598    3.83814304197629
O        -0.41312178064026    4.77481568154954    5.06508581800569
C         3.27881042837941    5.33947083810079    0.39603416863727
C         3.11569540219453    8.34647514173551    1.37158781943519
H         2.89832520576016    4.33767277893450    0.21658701114263
H         2.83984559988596    6.01744887175553   -0.33077028313633
H         4.35742025410360    5.32208797795435    0.22867114825750
H         2.69280948053630    8.19483091267906    0.38222768785328
H         2.65930822563630    9.22791465125283    1.81329864675148
H         4.18269697089674    8.54379912777730    1.25416175967542

