35
CSD_code = VOTJEV | q = -1 | S = 0 | Stoichiometry = C13H15NO5V(1-) | MND = 5
V        13.48118320205919    3.03957131650716   -0.61948237297313
C        11.31000056140338    1.28981245546031   -1.15199844532715
C        10.74952964409108    2.05569127191818    0.10114174985757
H         9.67949935298507    2.28511019992411   -0.07159755310813
C        11.01850732295351    4.38166975802127    0.30780566080662
H         9.92172325064858    4.49883771776570    0.28222775012742
C        11.79723572826745    5.56522134365946    0.50810598576969
C        13.20402057332918    5.43505336760753    0.73222801527878
C        13.91010565701684    6.61952008584057    1.06243055596847
H        14.97179542148864    6.52731090729688    1.24201579435613
C        13.28239485864881    7.83852968774887    1.11268464171519
H        13.85550710508748    8.72705094323067    1.34380178233696
C        11.91303880344816    7.95231432726899    0.86753024266861
H        11.43159729851284    8.91898805161301    0.90867131082973
C        11.18651157191834    6.82147373172001    0.57799599225863
H        10.12079898672095    6.89161726117223    0.39587901768299
C        10.86599066725906    1.12913942904131    1.33191829809905
H        10.34135187953705    0.20208373695657    1.06748242626370
C        12.32960745483256    0.80073364030817    1.64579961542065
H        12.83319563650080    1.69439256709877    2.03149400468734
H        12.83902677732361    0.51165071717541    0.72120990571928
C        12.48013485304614   -0.33883552844917    2.64875296538688
H        12.07065887298998   -0.07406269791350    3.62240987544551
H        13.53325779115793   -0.57686180582158    2.77850107202012
H        11.96842305402960   -1.23098336989542    2.29058385209294
C        10.16399373599666    1.78049590207155    2.52539212104572
H        10.16571468637289    1.11600986105565    3.38632874104925
H         9.12801830436899    2.01382521880643    2.28153890926430
H        10.67084608797551    2.70534587083142    2.80048430989995
N        11.53859135139245    3.21955522941031    0.24023729332760
O        12.45579482037321    1.65046310593462   -1.51438109501742
O        10.60373564738908    0.42304967050790   -1.64509760994308
O        13.81006659931076    4.30640005729931    0.70114657718159
O        14.70283521267548    2.15725969651049   -0.32225142632072
O        13.69480722888915    3.94906627231695   -1.84488996387023

