35
CSD_code = VOTJIZ | q = -1 | S = 0 | Stoichiometry = C13H15NO5V(1-) | MND = 5
V         2.56326974860260    2.68388650526064    6.77544595759603
O         2.44184727130042    4.33727369333950    7.82966984321176
O         3.54623878589122    6.04442227088488    8.73842468599600
O         3.42806519305384    1.21134812011138    6.02290809060379
O         1.88130610454087    3.20011239673126    5.49926062997419
O         1.60756967371696    1.88485404585095    7.67962641934541
N         4.54849903071658    3.12000070632204    7.25257193885693
C         3.45654540103430    5.03864962515976    8.04992715018662
C         4.74693181086738    4.51511157521647    7.31537901250342
H         5.66165573678197    4.80421433716980    7.86600743421217
C         5.32988788903360    2.27361956271268    7.79780147080906
H         6.23168802088845    2.61203035410113    8.33335657087959
C         5.12589695650775    0.86360804507295    7.65905425590967
C         4.15368986771641    0.40966810699173    6.70950279634869
C         4.08430637811124   -0.98992482735632    6.49093392283983
H         3.36144106696334   -1.34015470469883    5.76804186343331
C         4.87147581260300   -1.86662700190899    7.19395111414385
H         4.77330599626424   -2.93051622709332    7.02137604469538
C         5.79914966345110   -1.40837474992475    8.13074487035753
H         6.41250137412584   -2.11032992048683    8.67750386051758
C         5.92605631386968   -0.05582616620781    8.34381766891760
H         6.64902813252286    0.31719638737546    9.05926387987420
C         4.74647349012727    5.12626803410399    5.89830464177605
H         3.75084094292582    4.93813407404006    5.47022434363422
C         4.99576351560133    6.63625013667483    5.97276757935750
H         6.06427885700336    6.81816881685410    6.12710760561245
H         4.46306475385587    7.04010393768820    6.83537283111322
C         4.52744136865577    7.36727462573520    4.71973876805728
H         3.46505527053849    7.19557976461063    4.56519883422549
H         5.06291125564378    7.02272305511897    3.83720552069218
H         4.69296471461709    8.43848641172284    4.82181146155023
C         5.78881749640352    4.42438204874528    5.02517144011931
H         5.82146893053628    4.87428409375815    4.03544011424078
H         5.53426500231960    3.37101239557588    4.90959076885796
H         6.78109817320894    4.50059047074689    5.47309660954936

