91
CSD_code = VOTKAQ | q = 0 | S = 0 | Stoichiometry = C32H46N6NiO6 | MND = 4
Ni       -0.00030481201061    4.57578785186251   -0.00074010853882
N         1.10017831538630   10.83630270681540    3.95684404035046
O         2.03213183247348   10.74450389674744    3.10429046447897
N        -0.70710992727963   10.47194867548963    5.14815035637622
O        -1.72124909445473    9.93819701392979    5.68196675756356
O        -0.51927195013540    5.01432639914248    1.71086848901430
N         1.65510571744082    5.84278514212715    0.10591685983577
C         1.07920253340169   11.95988771970323    4.91769037888793
C        -0.36448967531894   11.87952516026045    5.44692630233225
C         0.11085415864279    9.96058220744542    4.21073747355117
C        -0.04723400805626    8.66970716003669    3.57423646407847
C         1.00038223555206    8.10550720559005    2.83621651095110
H         1.93241360949659    8.64134664381172    2.74938079060963
C         0.86666860638833    6.88134192637566    2.22497345937117
C        -0.35334039110031    6.16393636769181    2.29168300349031
C        -1.39464452637351    6.73846118486386    3.05067299605053
H        -2.32349326875111    6.19434322987169    3.13798803740666
C        -1.24377376708601    7.94733355877641    3.68056881963318
H        -2.05704974472886    8.34916072447811    4.26257218700309
C         2.00891234719619    6.25206518783351    1.48110301566728
H         2.33160875122834    5.35176646297261    2.01829962295707
H         2.84881875332573    6.96058512382197    1.44372372184383
C         2.85384121318202    5.26575305556262   -0.51062343999347
H         3.16961556703567    4.38391322239977    0.04635906289920
H         3.67059253134469    5.99810167760159   -0.51550264474198
H         2.62962662966876    4.97087961314307   -1.53340895907480
C         1.25713757661455    7.03104681531292   -0.66100493185791
H         0.38885853693608    7.49894545241565   -0.19454482001263
H         1.00715430469984    6.73651760035890   -1.68018301192627
H         2.07410040707136    7.76313961239347   -0.68505617673747
C         2.14194282455190   11.62814574837984    5.97292631266308
H         2.22718789324937   12.42740714489801    6.70322136096797
H         3.09965876782978   11.50969624710036    5.46987131052394
H         1.90863293048115   10.69520509303738    6.48171599659551
C         1.46164093384434   13.25240453515109    4.20822522161000
H         1.45490432808207   14.08089468181781    4.91082835572233
H         0.79007316925388   13.47310028762011    3.38460745804271
H         2.46276932938694   13.13975624075256    3.79913390331702
C        -0.54927420946344   12.14821418198908    6.93473420812596
H        -1.58837019638564   11.95971703805173    7.19366152020533
H        -0.30735393380488   13.18273825305316    7.16145927204496
H         0.06710764588409   11.49258293525756    7.54160839470590
C        -1.36198741168937   12.73054880589961    4.65110962873854
H        -1.21461439813114   13.78832600088345    4.84830345363751
H        -2.36890752805092   12.45389272090360    4.95744101576923
H        -1.26959460298557   12.54422357352714    3.58319383227729
O         0.51873092621424    4.13704584478959   -1.71225569645030
C         0.35301254658002    2.98718736101593   -2.29265200519739
C        -0.86700562154482    2.26979132282491   -2.22599143926824
C        -1.00055334974705    1.04540009696553   -2.83681298108803
C         0.04725756337293    0.48094665972721   -3.57436600121232
C        -0.11063613892461   -0.81018398410609   -4.21039775735883
N        -1.10005061228309   -1.68579512207743   -3.95647696644161
O        -2.03228123658815   -1.59365155110626   -3.10426573167242
C        -1.07878192080256   -2.80975646449459   -4.91687376286556
C         0.36508975566075   -2.72963567729529   -5.44565398699674
N         0.70762861037015   -1.32194079408276   -5.14733826704548
O         1.72194727067502   -0.78841863202872   -5.68103956579957
C         0.55036973723704   -2.99893917333449   -6.93328937347767
H         1.58955841127162   -2.81057702626767   -7.19194062799662
H         0.30849751240120   -4.03355026985008   -7.15966949347827
H        -0.06578891706458   -2.34353995207621   -7.54064204665655
C         1.36230027241995   -3.58035007950885   -4.64914432067067
H         1.21498002663618   -4.63820648926794   -4.84595669410953
H         2.36932855995687   -3.30383162514234   -4.95524378458599
H         1.26954349689811   -3.39358508729288   -3.58133589498107
C        -2.14116198883340   -2.47840247218327   -5.97259387287027
H        -2.22618247850063   -3.27794790352558   -6.70260364683560
H        -3.09904654136024   -2.35972677248101   -5.46991171120584
H        -1.90765173710897   -1.54567051163048   -6.48167135743374
C        -1.46149479121322   -4.10198106022908   -4.20702869707923
H        -1.45453038351036   -4.93074466080046   -4.90930528016987
H        -0.79021400029114   -4.32236644082511   -3.38309480779397
H        -2.46276252265581   -3.98915589711506   -3.79832554063327
C         1.24380430732630    1.20331267609667   -3.68068549902214
C         1.39450308098013    2.41242397454264   -3.05120299806141
H         2.32335912969061    2.95653148503551   -3.13850732424391
H         2.05724065804558    0.80126727945267   -4.26231551772571
H        -1.93259244150673    0.50957239209445   -2.74999271006091
C        -2.00939153860191    2.89934526276970   -1.48258118220734
N        -1.65583922181870    3.30893680276874   -0.10742335817037
C        -2.85459560290306    3.88639994646312    0.50866852489128
H        -3.17003763110674    4.76816032759590   -0.04862858859612
H        -3.67151426252294    3.15423748974905    0.51354597766809
H        -2.63056234113163    4.18149338973173    1.53142935881619
C        -1.25831472078356    2.12079420255705    0.65991187401201
H        -0.39002505531113    1.65258908927638    0.19378116693445
H        -1.00851177651719    2.41553840333201    1.67906973822679
H        -2.07544034742143    1.38888157725584    0.68396263999375
H        -2.33187317827094    3.79954002319189   -2.02007975342514
H        -2.84936951125844    2.19090995231632   -1.44521700406640

