92
CSD_code = VOTLOH | q = 0 | S = 0 | Stoichiometry = C47H38CuNO3P2 | MND = 4
Cu        7.89130265537927    7.95916822652138   12.78854542094791
P         9.51483925654363    9.07402901590618   11.79256713094965
P         7.71969720084305    5.75916630910823   12.04534781556243
O         5.94980870281758    8.32482148989393   12.33750883231432
O         3.77632309383272    8.35263831754421   11.00195141696118
H         4.73612233911900    8.40596360650354   11.26518280659603
O         1.86118177303706    7.97656160531295   12.05840995152677
N         7.23320247120019    7.89460786232405   14.66839602284991
C         7.90432818901580    7.68590927497329   15.78007765030496
C         7.23616702484408    7.45826299752096   16.99588184036761
H         7.81571373915204    7.29967546655775   17.89295641218943
C         5.86774925711209    7.43519180569269   17.02252601234256
H         5.33379898874556    7.25546209967300   17.94507219446380
C         5.13524901567262    7.63867731561559   15.83469670737768
C         3.73059977906167    7.59468099498971   15.75953443995933
H         3.16053729916967    7.41457718196187   16.65843577281460
C         3.11567395911909    7.76260720717984   14.55128481047536
H         2.04042995179074    7.71205337211016   14.46086086723779
C         3.83263314994153    8.00252767883869   13.36893186940551
C         5.23532266290232    8.08818287977990   13.39146545458710
C         5.88494240990671    7.87812735522967   14.65868285789053
C         9.39880305776809    7.69085736809882   15.71078247743131
H         9.79248073451888    6.71674672256454   15.99901539027031
H         9.81129648378758    8.43795884104458   16.38754361144355
H         9.71715786352630    7.91238163289591   14.69118473042361
C         3.06272108167636    8.11061970530278   12.10628677228574
C        10.18527895961092   10.53706630602185   12.64858243950500
C         9.50828517676382   10.98229879469229   13.77835895607035
H         8.63364205364527   10.43706569223953   14.11213015463377
C         9.95288213587858   12.10353000185930   14.45599830149977
H         9.42662788904731   12.44936035614558   15.33356267940396
C        11.07321606702863   12.78189136845783   14.00556599527151
H        11.42283568573172   13.65691846684869   14.53327872298216
C        11.74704031296890   12.34261791736126   12.87583825116315
H        12.61835026246594   12.87690352131141   12.52604737197328
C        11.30579036308219   11.22473213416656   12.19335536797213
H        11.82780788898661   10.88032266154693   11.31178099433128
C        10.97442743615937    8.04453688116010   11.48186077908954
C        12.01971859256810    7.98708841165601   12.40053636801572
H        12.03213810804954    8.66798923273464   13.24125409125676
C        13.03780901399720    7.06544436472517   12.23503642579792
H        13.85083198853316    7.03127343956847   12.94580905912987
C        13.01264404291329    6.18286578874083   11.16713778168560
H        13.80626611906349    5.46095585568975   11.04419006232781
C        11.96482966013455    6.22305956117755   10.26051880928668
H        11.93662133636295    5.53058064056493    9.43217578238211
C        10.94710648854399    7.14401496946581   10.41771088953154
H        10.12419590727695    7.17340914184778    9.71727427285840
C         9.10562252059740    9.78600736838951   10.16762369214399
C        10.00922573117320    9.93574805312046    9.12206974885720
H        11.03334751436863    9.60751081450461    9.23341484595521
C         9.58682538404378   10.49363587592383    7.92880460414638
H        10.28694583209496   10.60591306881135    7.11346741986443
C         8.27303319637190   10.90619902816430    7.77455418228717
H         7.95132534035255   11.33644464282290    6.83747886254692
C         7.37190880757142   10.76393223479499    8.81779569243044
H         6.34647897246944   11.08033344644770    8.69742273853442
C         7.78685168603581   10.20460857144283   10.01153363911453
H         7.09336706813015   10.07044809388048   10.83211396413803
C         8.73750399568796    4.32551669938897   12.53280787580503
C        10.04721587154117    4.59370149558859   12.91795472749377
H        10.39140801728948    5.61984612558089   12.92965588179346
C        10.89390688634293    3.56175844177078   13.27775612780957
H        11.91193393056366    3.77617031951151   13.56910603544783
C        10.43131827207246    2.25590428631675   13.26743304775984
H        11.08887898348354    1.44707808860315   13.55045622561201
C         9.12258846659801    1.98534262613820   12.89869882629132
H         8.76342169375245    0.96634711117903   12.89434112811856
C         8.27429077107987    3.01385522193339   12.53097810774240
H         7.25410376924585    2.80451259178637   12.23986882628593
C         7.82170577768514    5.71700228120655   10.22972510883408
C         8.46599204048491    4.72414515959134    9.50106901983915
H         8.89144286916043    3.86855326890322   10.00593741423396
C         8.56775705505646    4.84139368831976    8.12556279817611
H         9.06737588675200    4.06851656962023    7.55910879979317
C         8.03806939315704    5.94304924691897    7.47309513902401
H         8.12802846652392    6.02878778332597    6.40017461472954
C         7.39769747951062    6.93706364473078    8.19701599939356
H         6.98941204512405    7.80139350907458    7.69429671338555
C         7.29509943256811    6.82697050758079    9.57008550752493
H         6.81373823367766    7.60242866075705   10.15080353690108
C         6.03361724338610    5.19037969651037   12.40507218518249
C         4.99617330282167    5.24092319134635   11.48158510100480
H         5.19550498260207    5.51431909298645   10.45512051765595
C         3.70281620114477    4.95612284083479   11.88360208022515
H         2.89651330244915    5.00978485068462   11.16799380857893
C         3.43680915929063    4.62812478687022   13.20221451066383
H         2.42337533615229    4.42422808230943   13.51197659645559
C         4.46823783403297    4.57774664175311   14.12695291666059
H         4.26164835118748    4.33034908782091   15.15810018963934
C         5.75979074804154    4.86702256768234   13.73399762654215
H         6.57116451885798    4.84649879359283   14.45264079013192

