92
CSD_code = VOTMAU | q = 0 | S = 0 | Stoichiometry = C47H37ClCuNO3P2 | MND = 4
Cu        9.75987294456324    3.84196095068841    3.35953267707938
Cl        8.39358686389587    9.26551216975743    7.21296211607813
P         9.40142878016299    1.65497439255149    3.09610370036935
P        11.29718577002853    4.77650851247806    1.91190149602744
O        10.84150873719550    4.41953005172772    4.99904756741432
O        12.85505573110459    4.80257462982043    6.52813171857701
H        12.23728732153524    4.41461433888280    5.85080118245845
O        12.87891059294656    6.59924257937112    7.83123077230848
N         8.48091539885372    5.24842775440142    4.01975331600350
C         7.31733280688739    5.59711117782345    3.51721538009358
C         6.62681350524427    6.71919999770300    4.00722279405512
H         5.66801768742971    6.97479941747915    3.58287488461703
C         7.18045328773385    7.47574430669046    5.00426006432419
H         6.67552040083789    8.34909659265369    5.38811453111987
C         8.43341139898468    7.11819150248652    5.54199811268987
C         9.11733054082905    7.83388040058544    6.54700787065247
C        10.34277521833630    7.42107687074712    6.99008468591604
H        10.87981029960189    7.97280541768897    7.74729667705159
C        10.96050174828122    6.26806137280991    6.48444973647608
C        10.32685742857596    5.49275455686708    5.49620629970130
C         9.04913484619123    5.95749417586243    5.01422544221565
C         6.75105384132732    4.76368202138966    2.41295551282574
H         6.55085963804745    5.37976468829758    1.53774464710759
H         5.81428611548960    4.30443462197599    2.72692008722516
H         7.46103547858951    3.97923259486043    2.14818082309357
C        12.30585656569744    5.91949165399828    7.01288689075314
C         7.75790146693666    1.07933486379447    3.64271572164518
C         7.11860261121042    1.86959330509674    4.59297961284962
H         7.59825493531354    2.78462867270377    4.91873993512322
C         5.89078867985361    1.49083299125267    5.10322503321492
H         5.39759348513282    2.10765701889636    5.84010450094196
C         5.29454115989412    0.31961605572285    4.66501562660966
H         4.33440871524552    0.02137323052135    5.05934247376347
C         5.92861324918524   -0.47052538564600    3.71929865469882
H         5.46211622776131   -1.38382441388824    3.37966562684719
C         7.15840741039708   -0.09772075491239    3.20816851401976
H         7.64455247621304   -0.71433409807050    2.46559804791951
C         9.54928600411782    0.98932619828444    1.41267115189938
C         8.47308174214147    1.10101971940746    0.53508739772581
H         7.53566556375544    1.50767271264147    0.89122562403750
C         8.59751521139286    0.68040061098287   -0.77500957340898
H         7.75315792532859    0.75197858468381   -1.44517013938846
C         9.80236760683166    0.16900062959803   -1.22940754625698
H         9.89726557059891   -0.16330605166746   -2.25229391281034
C        10.88738489281344    0.09169405101308   -0.37227363104635
H        11.83174648791118   -0.29258991951876   -0.72840011354886
C        10.76614593608932    0.50488213390360    0.94092742858366
H        11.61417006724972    0.43919960387097    1.60875603350987
C        10.46156514829609    0.55532459837029    4.09296003933090
C        10.53155424820918   -0.81925602072497    3.88699149545751
H         9.96553714515858   -1.27931490776686    3.08923711165871
C        11.33884904874055   -1.59182209725156    4.70073777851523
H        11.39722931651751   -2.65865517467692    4.53990389476908
C        12.07272516240458   -1.00363447812805    5.72002627182047
H        12.70343048644816   -1.61487588751762    6.34870596558983
C        11.99765938878932    0.36295490756370    5.93167327549955
H        12.56810805580056    0.82492608336305    6.72344586627615
C        11.19077910828469    1.14218470918540    5.12179229094331
H        11.12805422109881    2.21097739032783    5.27111052841429
C        12.87753662244093    4.46163209600643    2.74948801790875
C        13.10383998640215    3.13441907826687    3.11048645809441
H        12.38129238919230    2.38296346252991    2.81117827106097
C        14.21498710029704    2.79183088727955    3.85286409935641
H        14.37795611334355    1.76179882526169    4.13603332228031
C        15.10616323385850    3.77692932228077    4.25114977983259
H        15.96690791129164    3.51690146153851    4.84795148833531
C        14.88441024124920    5.09652323883053    3.89728729647511
H        15.57344916058427    5.86373928695632    4.21702326896283
C        13.77253925030583    5.44531155376806    3.14917795782800
H        13.59914248924775    6.47969554451224    2.88723910104389
C        11.36374553257654    6.55373330617439    1.51991566281971
C        11.16129755115160    7.43058943618521    2.58541844247413
H        11.01792862928552    7.03321817919975    3.58098017103245
C        11.15313936796843    8.79580358872925    2.37660185792706
H        11.00242370884845    9.46573271271897    3.21008962662744
C        11.33596120883384    9.29886296021577    1.09801958913314
H        11.32907495944259   10.36571618665196    0.93116007486952
C        11.52691497917369    8.43223519775134    0.03458486310154
H        11.66991051017843    8.82449540315409   -0.96187860057017
C        11.53821166261811    7.06341990367415    0.23812642084269
H        11.68764862851520    6.39283822592407   -0.59598965256444
C        11.52469725617607    4.00338168671790    0.27732184953242
C        10.38132160890387    3.88261579148814   -0.50893091444707
H         9.43693487402657    4.24020711285644   -0.11754379682862
C        10.45658740157896    3.32494888034121   -1.76981096505164
H         9.56974288625424    3.24635816251881   -2.38121602378424
C        11.67294281629171    2.86238698345885   -2.24644487354480
H        11.73489893004907    2.42379175072348   -3.23137001410118
C        12.80822982365605    2.95970174284208   -1.45954126188441
H        13.75522496591646    2.59635598389118   -1.83167903829442
C        12.74006013243936    3.53030912243045   -0.20079399804211
H        13.62901636445022    3.61406729399042    0.40834154813659

