35
CSD_code = VOTSOM | q = 0 | S = 0 | Stoichiometry = C15H11FeNO6S | MND = 6
Fe        4.24462418760765    1.96955251554349    2.68343221506990
S         2.61451303146303    5.39099537450810    5.02700712913323
N         2.51871146030289    4.11691749549592    3.96605790006617
O         5.25704982079940    3.92709907009899    4.58553778217104
O         5.25548487841065    0.08944810427756    4.67781299105652
O         6.26410232212434    3.17850516364944    0.95292958859212
O         4.02299684474573   -0.23450207709349    0.80330846546752
O         2.95498735952587    4.82052338625369    6.29290183387534
O         3.48845115709110    6.34302882072989    4.41557039594152
C         4.69750811248232    3.24555446039818    3.86390595095506
C         4.83941446413981    0.81701132093293    3.90170879553711
C         5.45856920864774    2.71167065731488    1.61462851931162
C         4.06899262545596    0.64010985563817    1.53811579009938
C         2.13368498260984    4.30321000341213    2.56939605364050
C         0.62083361902951    4.29994150253799    2.67871189976863
C        -0.38232368123401    4.90793240756930    1.96614718411486
C        -1.69863160160911    4.64821730263728    2.34802655021040
C        -1.98219747545806    3.79505689983151    3.39752486947091
C        -0.96152288500293    3.16484652131312    4.10957551303409
C         0.33324273562475    3.43422034810240    3.74247617920866
C         1.68358363876394    2.94852075398628    4.23315251404410
C         2.16505310907985    2.02464133787045    3.10400745322804
C         2.45722506858360    2.90400199925278    2.02448174327112
C         0.97832297507011    6.16522945867341    5.18710095078317
H         2.60932119926730    5.16137267010500    2.10338627163421
H        -0.16629139627047    5.56880281732668    1.14032514852911
H        -2.50745212413009    5.11926712772467    1.81040593468782
H        -3.00977911283021    3.60809281326440    3.67002040657022
H        -1.18830727460006    2.49284607654350    4.92343387286740
H         1.75618008342777    2.59365277558263    5.25717283230010
H         1.61361450690702    1.09788229213681    2.98199029467599
H         2.14968941988530    2.71071146929649    1.00174808300354
H         0.27835002459235    5.43777358837345    5.57479629012706
H         1.10990599759746    6.97923126361540    5.88859290336355
H         0.67049271790008    6.54153442309605    4.22110969418859

