55
CSD_code = VOTWIK | q = 0 | S = 0 | Stoichiometry = C18H29NO4P2W | MND = 6
W         1.09333778897779   13.49574460080054   -0.16554102730981
P         0.48757491054120   11.75791527942392    1.42350329120310
C        -1.08610725198292   10.85790450146989    1.16126512396656
C         1.69115392340931   10.38630182635354    1.51319895701378
C         0.34474416706020   12.21716582173851    3.19168534688860
P         1.62789891601601   14.95591703025210   -2.03383862774704
C         2.25710765925200   16.62149286874922   -1.60683982670966
C         0.38998249485042   15.35861807516128   -3.32645915450203
C         3.00699709910334   14.31066346668914   -3.04802596640121
N         2.78302627514377   13.55484563941937    0.36853051589843
O         3.90931727165234   13.62905255794155    0.75245613325724
C         0.69585147488554   14.95720632682194    1.11413640024893
O         0.44303639605373   15.81043001317935    1.84375133696644
C         0.99246124046814   10.78725891688407   -2.25786115959451
C         0.69111765289151   11.95078634637592   -1.63875614995719
C        -0.61611718280932   12.52740032764437   -1.79225572190283
O        -1.05053279036016   13.31987079629121   -0.93166852635230
O        -1.31345421936702   12.30034808839518   -2.91972169967067
C        -2.55829101993875   12.97939631957166   -3.05922762477394
C        -2.97976639360114   12.92907429318108   -4.51634599983752
C         2.29638052944058   10.15895406428618   -2.24824597798981
C         3.39524454183965   10.74652459882797   -1.61184463631346
C         4.62976734529859   10.13191145441366   -1.62557722517266
C         4.80135916894833    8.91726324888563   -2.27336880962192
C         3.72324712863728    8.32250097787277   -2.90912031992588
C         2.48548619924165    8.93448303226723   -2.89672753328876
H        -1.23940360112783   10.11750662805179    1.94691637607783
H        -1.90824018554714   11.57359159144334    1.16389466200200
H        -1.05331929130751   10.36139992078900    0.19172795345309
H         1.39136887778344    9.64850661449807    2.25748377105203
H         1.77274140903295    9.91730916027299    0.53431495747834
H         2.66218206888174   10.80401895725211    1.77646943887892
H         0.13548527300740   11.34672177962147    3.81376338593021
H         1.28448214631329   12.67423222799573    3.49961854009515
H        -0.45097773623221   12.95197474703067    3.30631072852700
H         2.59253920076089   17.16129735528510   -2.49265845670233
H         1.47055276812426   17.18488025203123   -1.10666842854750
H         3.08729206957677   16.49710892482366   -0.91201069534567
H         0.81896809328017   16.03752120364256   -4.06426428517072
H         0.07646085335447   14.43947464734681   -3.82070057497663
H        -0.47575600787173   15.82915385279058   -2.86003512906590
H         3.25896825458845   14.99577133360658   -3.85770033071634
H         3.86991314185595   14.17611474927745   -2.39649455472790
H         2.72721876751558   13.33933878726719   -3.45413165817935
H         0.22111210927601   10.23220464661837   -2.79460017208047
H        -2.44442685501617   14.01257904263576   -2.70906984991779
H        -3.30088420839209   12.48582122669395   -2.41983095362336
H        -3.94378881559313   13.41569252707856   -4.63526706097712
H        -2.24738016479645   13.43445645454830   -5.14109055538739
H        -3.05910464162904   11.89617534545374   -4.84469792258481
H         3.25455629072868   11.69025884902055   -1.10306651109114
H         5.46522990928531   10.60111656491616   -1.12647769948384
H         5.76872068214832    8.43642521210272   -2.28232299214023
H         3.85019260280721    7.37608170594999   -3.41610892330067
H         1.64797366346890    8.46513521899231   -3.39600417777750

