66
CSD_code = VOTWUW | q = 0 | S = 0 | Stoichiometry = C19H37NO6P2W | MND = 6
W         3.40246122969729    2.19269003946352    2.76494402759625
P         2.78382139802425    0.74912359459223    0.89179334381911
C         4.21494314790926    0.09875007965435   -0.04680088019371
C         1.87042621582089   -0.77897263618408    1.29453834739105
C         1.73632156817935    1.42321025727911   -0.45033735672413
P         3.74791368084307    3.78715458994862    4.56572857082481
C         5.37370549483366    3.67429494048112    5.39543709889952
C         2.59990797347908    3.67298778951499    5.98259405297823
C         3.66374292333507    5.58193068859398    4.19250592495301
C         3.08033628288429    0.76078254068056    4.06825021762489
O         2.92362895593696   -0.07449931883388    4.85197937423820
N         5.12601405409503    1.75498347283775    2.69251850679834
O         6.28039715515005    1.52280344428926    2.58609795981735
C         1.42034281623370    3.01562437778049    2.52193878483987
C         1.32715125586060    4.08494629721748    1.69953830304196
C         2.57174862771061    4.49612072017680    1.09871803881734
O         3.62920010179450    3.89465207127246    1.31433196005932
O         2.48294366408883    5.53934361556423    0.26671298267914
C         3.62916661849344    5.98827204416333   -0.49353963994072
C         4.12713847066319    4.87019770537494   -1.41098068155846
C         3.09131648321117    7.15686107432350   -1.32025277604147
C         4.74189558721484    6.46405467051670    0.44122752979062
C         0.25917382172428    2.29788288315758    3.01958574234917
O        -0.29448340030339    1.43856636417356    2.35407388533745
O        -0.05084670049238    2.61342098080304    4.28848241164755
C        -1.05546861030825    1.86613228111561    5.01426467452940
C        -2.42379712146249    2.05406122863488    4.35749896254352
C        -0.67318160944710    0.38804816314458    5.08184080207837
C        -1.05078572823489    2.47833777726605    6.41640855137920
H         3.89278614932094   -0.55561037705833   -0.85714571372665
H         4.78358093929901    0.93483851049739   -0.45169793143300
H         4.85561594519536   -0.45187478291818    0.64076261660159
H         1.70442687233452   -1.37982304571677    0.40037785555729
H         2.43650180175171   -1.35027696057965    2.02836365926499
H         0.91402390124391   -0.48988390197245    1.72648149604708
H         1.63487249757170    0.69329770267171   -1.25406351669601
H         0.75638020841487    1.64727738562696   -0.03103800395562
H         2.17670116817721    2.33892572294340   -0.84249911751909
H         5.45602327583878    4.39805716846449    6.20661578812424
H         5.48985854606137    2.66366871115257    5.78506018619360
H         6.15817420738724    3.85115128997815    4.66082199920648
H         2.81865898579390    4.43535488880021    6.73045741510999
H         1.58145737552607    3.78709133578735    5.61585180688282
H         2.70114616583241    2.68282630819009    6.42457245800840
H         3.82170709492015    6.17095698660742    5.09642049392620
H         4.43020806644456    5.82799550433842    3.45924000380728
H         2.68518587196561    5.81363408303643    3.77246197427851
H         0.42158760044236    4.60967845534986    1.41586924651660
H         4.51299132540574    4.03917192063237   -0.82488522457593
H         3.31343598692213    4.51430205511477   -2.04056200369090
H         4.92300503971272    5.24744868784947   -2.04731019719636
H         2.27629475181564    6.81914433038220   -1.95492583068373
H         2.71425761314338    7.93541535223753   -0.66239089322024
H         3.88008394619937    7.56835176006590   -1.94309887446798
H         5.15029975811928    5.62725530082046    1.00273602397402
H         5.53969624213258    6.91556367905017   -0.14231436145819
H         4.35168589234473    7.20570737231418    1.13586552009259
H        -2.67137427165750    3.11275012609463    4.30630970628785
H        -2.41324400115279    1.64702799061185    3.35005155009225
H        -3.18499767684549    1.54027547161660    4.93841542183007
H         0.34749644263550    0.28297147448642    5.44358040914485
H        -1.34544953100690   -0.13350200268724    5.75787160258887
H        -0.73999856741934   -0.06529588476539    4.09688919289944
H        -1.22406685193723    3.55018540647709    6.35679064601025
H        -1.83456479540531    2.02745391798455    7.01836254333107
H        -0.09208233342317    2.30562631943172    6.89810333294238

