63
CSD_code = VOTXUZ | q = 0 | S = 0 | Stoichiometry = C28H24Cl2HgN4O2S2 | MND = 4
C         7.03747094770085   -0.14982908642137    6.94686757060976
C         7.35028291763407    2.23636778718384    7.40904822599787
C         8.34634231662877    3.37044773976132    3.79619444323563
C        10.67658788616370    4.18081925369843    3.66345380499525
C         4.83168644206545   -1.07862787172591    7.61112378264629
C         5.03839410504600   -2.45229179078440    7.55591987253307
H         6.03388738160304   -2.84982576519026    7.45846218670303
C         3.95543455542001   -3.30985084761467    7.64145332488018
H         4.12210287406819   -4.37516246970771    7.59501959859719
C         2.67177884712575   -2.81485260130952    7.79118855166683
H         1.83327441081838   -3.49129625155518    7.85494893722146
C         2.46808224366011   -1.44584857750824    7.86959793355147
H         1.47110871510319   -1.05201823142817    7.99711643879763
C         3.54037749807087   -0.58051961187691    7.78667344632887
H         3.38744518800040    0.48734829596311    7.84810908001211
C         8.29655434274616    3.34420160155409    7.16808807402995
C         7.75065018228026    4.57438509858917    6.80074838959771
H         6.67811348539418    4.66496315177324    6.71550591994642
C         8.57624145037377    5.64749818035236    6.52755579412946
H         8.14709673413922    6.59180304810557    6.22784937873875
C         9.95083794024004    5.50851766118781    6.63797529880268
H        10.59501962030595    6.34666715190105    6.41964848691724
C        10.49541609478795    4.29797162022300    7.03631196920958
H        11.56469415047404    4.19061217464455    7.13714280286428
C         9.67700026867296    3.21554304960793    7.30387949953666
H        10.11712168396371    2.28905868586353    7.63410231662017
C         6.62703124734028    5.17677834597293    3.57484420142706
C         6.58179985249121    6.53470123906748    3.25131648113539
H         7.50076877217518    7.05401437089093    3.01919671288374
C         5.37723676040784    7.20754662285221    3.22488024865143
H         5.35536857822619    8.25633781295892    2.97004739652252
C         4.20094315991730    6.53867602310371    3.52582380205451
H         3.25816724469000    7.06344101280630    3.50535613766061
C         4.24430492030053    5.19488797077616    3.85316169118180
H         3.33327035500463    4.66757519872973    4.09208978254372
C         5.44588166921398    4.50870911224742    3.88025896792448
H         5.46098212236391    3.46455859025168    4.13819743331359
C        12.05284299392222    3.66007056544063    3.74580677129068
C        12.39687373960342    2.39487005419339    3.27066608736467
H        11.66465335112747    1.76494793607219    2.78526212643395
C        13.70272623229893    1.95464314808014    3.37952029307477
H        13.96494905846169    0.97522095020950    3.00974694457843
C        14.66717566353724    2.76116133284937    3.96231212862624
H        15.68241732863470    2.40526141250155    4.05565222414023
C        14.33374707530697    4.02815582367810    4.41516792244611
H        15.08796345370131    4.66134540153249    4.85809665536976
C        13.03466377690166    4.48169037112053    4.29786052044943
H        12.75550066197654    5.46656836321096    4.64081193558967
Cl       10.65963543604959    0.67540335235387    5.53916245371357
Cl       10.02671335743724   -0.54650020183265    2.00172061119855
Hg        9.05854276895360   -0.38204529780905    4.06302668420234
N         5.86043314596086   -0.13117566980076    7.55526002127013
H         5.60837273801821    0.81106422548572    7.90149394702238
N         7.80579438317916    0.98326660047987    7.04175548222809
H         8.75219475428796    0.92625418905116    6.64628957979798
N         7.89983742577784    4.60451560429595    3.59238975452087
H         8.67075612303528    5.28053997754916    3.45706027294498
N         9.70828775523301    3.21352928218611    3.82835374507857
H        10.04297056962777    2.29354877421551    4.12327218197402
O         6.23368968350388    2.42121451138298    7.86434133224681
O        10.41063729856677    5.35868214443247    3.48052235052761
S         7.61545534849022   -1.48208862552363    6.07681316815443
S         7.39080891162842    2.00474808358116    4.00297682027494

