85
CSD_code = VOTYOU | q = 0 | S = 0 | Stoichiometry = C42H34As2Cl2O4Pd | MND = 4
Pd       10.91471693426115    6.39270657381805    1.80575810155681
As       12.34129798675020    8.04101739804713    1.03595047641292
As        9.59447042119859    4.50771702008986    1.97111545579157
Cl       12.63072252340486    4.87482894407472    2.00976466160958
Cl        9.16890902267197    7.77441482930222    1.31679919224896
O        11.53724120485439    9.37088708388925    3.37092620259038
O        10.83051619469883    6.78438370217309    4.18809696743019
O        10.08773848442757    8.24994102539470    9.04566664798498
O         8.24478300956742    5.77124937354739    3.95683910310005
C        10.83227379284837    8.72499833560848    5.54745654804140
C         9.01559314714042    7.25441034106436    7.19215376852318
C        10.75427000930022    9.02028546477590    6.91528210887578
C         8.14670185609530    6.07508618338351    5.26984612742110
C        11.37767976747278   10.14270948448847    7.45020469467163
H        11.30252546668456   10.31545036592882    8.51239063399878
C        11.52078631912936    9.62064008960373    4.70284192613848
C        10.43539914366756    2.33763908757109    0.13752798565686
H        10.73063846834184    1.78574040453498    1.02329784121313
C         9.11696094752231    6.93254647808661    5.83143571544552
C        10.65945488380427    1.81379691649933   -1.12549294738541
H        11.12032010121217    0.84204006165787   -1.23010776639236
C         7.11169577104871    5.59881696658347    6.07642905517932
H         6.34709697149811    4.96179397194212    5.66361671048460
C        12.06709012823304   10.99934850632362    6.61995200645842
H        12.55995959849315   11.87235339561594    7.01985185501456
C         9.06345272545984    1.01946148592173    4.25531262148306
H         8.49690580259006    0.10200320912668    4.18017696178111
C         9.84618602950997    3.58748529024484    0.27688207052166
C        12.12333420728335   10.74990374631792    5.25990056457996
H        12.66391195775722   11.44372571923991    4.63762649740382
C        12.00030158461303   10.40795274970375    2.52199415760364
H        13.07407118462999   10.57980323709157    2.70274551237770
H        11.44207668264384   11.33378725750211    2.72328828311821
C        10.27915875611736    7.43794360981375    5.06519646120905
C         7.99789151850858    6.73554763421631    7.98518601645001
H         7.97667672753805    6.99800040596852    9.03133841959196
C        10.52094720934072    3.37170449357032    4.45215755401571
H        11.08546891343050    4.29707176002594    4.50973957517547
C         7.21057820482475    5.00098990354790    3.36564951933269
H         6.25687465734101    5.54380740360540    3.42662462750611
H         7.12010621014351    4.03978286079249    3.89534182557127
C        11.80787197455449    9.93978770109706    1.09065881767542
H        12.39746586281595   10.56693306183117    0.41537476349319
H        10.75326917051453    9.98875836301026    0.80466279648666
C        16.63098774857013    8.34959416913629    2.97233678822148
H        17.60219142474357    8.41855253416669    3.44045732972344
C        15.55905885583939    7.82346648938671    3.67526294061811
H        15.69398566968892    7.48063781935400    4.69099020045744
C         9.51656405983169    4.32045942255643   -0.86264696092672
H         9.09744329045033    5.32118038658831   -0.74675536324954
C         7.04451849450347    5.91541730284759    7.42146550066259
H         6.24025750641848    5.51712175962354    8.02107386749580
C        12.58341750290425    7.73492551730961   -0.87473014591264
C        14.14352862655299    8.16806313133831    1.76225198154986
C        10.56890856602925    2.43947948284136    5.47512081305423
H        11.17292561691201    2.62824521649219    6.35074744124583
C         9.01189548516521    1.95129476305939    3.23367905873309
H         8.40449645337135    1.76957779355747    2.35008317528753
C         9.98391183790472    8.16308069877022    7.83640528968723
C        10.30291096143132    2.53490982757261   -2.25256338620335
H        10.47944616107448    2.12158937333858   -3.23524399734847
C        12.28363122165772    6.45597212610808   -1.33650801532454
H        11.95116194630927    5.69242815826789   -0.62867503133800
C         7.62782948755153    4.74391019567540    1.92805069613992
H         7.41913565104725    5.62080025442245    1.30910486492944
H         7.09805236735897    3.87834314785967    1.51769721558648
C        14.31844711551692    7.72917971977998    3.07012627818119
H        13.47019067535453    7.29691018672707    3.59696795711173
C        16.46438372652852    8.77733523759674    1.66513530883774
H        17.30519922258280    9.17630960597784    1.11564796445027
C        12.40786763752906    6.13972929287695   -2.67757828283031
H        12.17539238759153    5.14070113613619   -3.01706651314200
C        15.22239418924668    8.68893101205132    1.05926195158444
H        15.08885444321140    9.00954763704274    0.03135344430779
C         9.73395249231373    3.79263809517142   -2.12217189175105
H         9.46935769688759    4.36327795939455   -3.00126282942349
C         9.84093718366250    1.26539998443785    5.37643570291539
H         9.87759866090648    0.53792996518321    6.17418259117006
C         9.74459918735998    3.13060534127206    3.32657191659050
C        12.82594806289687    7.10571039259285   -3.57713737887287
H        12.92074951747916    6.86588817060259   -4.62609932544649
C        13.11715869013952    8.38462788837634   -3.13165225811124
H        13.43656152904787    9.14140370426280   -3.83411974797905
C        12.99692671807782    8.69874967675390   -1.78892570115845
H        13.21903039441633    9.70672352681939   -1.45433356672502

