35
CSD_code = VOVCEO | q = 0 | S = 0 | Stoichiometry = C21H10CrO3 | MND = 9
Cr        0.14612904291408    0.11302218178822    4.39963942719126
O         1.74911807453032    1.22461001709537    6.65172384117048
O        -1.12703034824345    2.79236370373745    4.63984612701703
O         1.92730637640706    1.67317412445741    2.59114255662234
C         1.21414195018961   -2.57582211082740    6.15014888793681
C         2.25481391669014   -3.16718172112612    6.80880477576801
C         2.06503088289089   -3.35042448992450    8.18665006832508
C         0.90565967675226   -2.96048253919826    8.83142842880902
C        -0.16324137400084   -2.35408863323777    8.15538444155982
C         0.01985839934098   -2.17331877883789    6.81237588253613
C        -0.54599860416376   -1.66068918949554    5.54371562338010
C        -1.67159731635235   -1.18954400665606    4.90411401295283
C        -1.61207794309016   -1.02800320364369    3.47361622219407
C        -0.43397868536421   -1.35655448243603    2.83934178895413
C         0.23766030297550   -1.58138478430903    1.53911069706789
C         0.16706460603652   -1.45638097828292    0.17926291484328
C         1.29292130027647   -1.90776860605029   -0.52498777285380
C         2.39854283941044   -2.44344721809824    0.10945868789389
C         2.47327672569166   -2.57299828889777    1.50434375406691
C         1.37725258254191   -2.13240075312244    2.19069529094824
C         0.74187089822181   -1.93271689924199    3.51217090827041
C         0.68642724007993   -2.08346917179561    4.85831360887104
C         1.14421251326654    0.76781933709113    5.78420970267817
C        -0.68083101407412    1.73273298683347    4.54166032968589
C         1.25444063053241    1.04464535134581    3.28349355045175
H         3.16708143975063   -3.47990269809308    6.32435422698860
H         2.85391878195697   -3.81126415153587    8.76241929594122
H         0.81866219655753   -3.12690666698694    9.89496419455286
H        -1.05829363272485   -2.05843620018400    8.68094439850459
H        -2.60249050392968   -0.99812296330325    5.42533796612514
H        -2.49893068518549   -0.71684736600549    2.93364678201203
H        -0.68443358347505   -1.04230992481206   -0.33863235306383
H         1.29461511510007   -1.83291232427585   -1.60236739309364
H         3.23545220310546   -2.77345125918589   -0.48795168754698
H         3.34514599538533   -2.99533829278582    1.97992081323872

