51
CSD_code = VOVCAM | q = 0 | S = 0 | Stoichiometry = C25H22AuClNP | MND = 2
C        -0.53531451526340    4.64528975816010    5.45103487386170
C        -1.42529971167813    5.64956037824229    5.81884803342322
H        -2.31775457301469    5.82472402153544    5.23474299208441
C        -1.16558219770108    6.41846435796637    6.93894194270556
H        -1.85861347419829    7.19533918260447    7.22635371769838
C        -0.02472510837477    6.19324169543471    7.69260470848940
H         0.17027055024075    6.79520849589787    8.56741427755535
C         0.86164528784288    5.19140549181505    7.33048686576819
H         1.74776248492528    5.01056717038802    7.92002697611905
C         0.60503547098932    4.41428045970918    6.21644275299233
H         1.28169253566741    3.61813337573234    5.93040850986950
C        -2.59457953160683    3.62288757711859    3.78986106688048
C        -3.34123056668028    2.61106065777174    4.38375075067682
H        -2.82959584993601    1.82351608087312    4.92277315118093
C        -4.71985061241796    2.61521506974674    4.27586644665030
H        -5.29862105529282    1.82947348462537    4.73735504152987
C        -5.35480079813059    3.62558214685873    3.57155748033535
H        -6.43093777399939    3.62794799375255    3.48452403459222
C        -4.61230214198910    4.63203076931962    2.97391984932507
H        -5.10980199215958    5.41718210367963    2.42348246101599
C        -3.23337248676413    4.63563975691607    3.07975792263994
H        -2.64907875532333    5.41742299331284    2.61200624002760
C        -0.14699987156230    4.55366643519320    2.62199813807530
C         0.62583016401916    5.68763274872543    2.86160507483386
H         0.78801555176397    6.02068940073042    3.87721612751786
C         1.18889352787275    6.38545870389364    1.80985272322570
H         1.78711697127920    7.26236023301819    2.00624098276408
C         0.98866158149242    5.95197864164758    0.51052757618563
H         1.42691921265029    6.49159587309539   -0.31530884167717
C         0.23121729209596    4.81995164093332    0.26789264583830
H         0.09077694146919    4.48083562307653   -0.74788481794442
C        -0.33910567957471    4.10334456477021    1.30983759382273
C        -1.14605514346063    2.85543189293905    1.02816367869904
H        -1.09437979109995    2.19568765130698    1.91161943888680
H        -2.19945570199270    3.12520155996772    0.89317603805246
C         0.57105140684886    1.65978829866574   -0.28610389870443
C         1.46911414628976    1.57317250449451    0.77636175989138
H         1.18315902916632    1.89713427844821    1.76755882853218
C         2.73483357566570    1.05529674693115    0.58049334662581
H         3.40939349176668    0.98623642017074    1.42070378033980
C         3.13708310386277    0.62548491970798   -0.67193269037413
H         4.12794804512337    0.22401001083708   -0.81899479357799
C         2.25292146888164    0.71322924025173   -1.73466061994988
H         2.55257727575041    0.38100002732055   -2.71820353075941
C         0.98553993216273    1.22554028756154   -1.54699505035862
H         0.29656808454509    1.28836473400482   -2.37905363932952
N        -0.72465435405402    2.11852693834574   -0.12883965221414
H        -1.21020269115062    2.31775569204115   -0.98910125414385
P        -0.79348853846238    3.57525012584275    4.00577431437180
Cl        1.05860404036776   -0.47112205883257    4.74753375803015
Au        0.12857174313257    1.55012384347122    4.32586288793491

