73
CSD_code = VOVDIV | q = 0 | S = 0 | Stoichiometry = C28H37Cl3N4Pd | MND = 4
C         7.03001480976664   -1.41210372982674    6.10160369611746
H         6.01112436566340   -1.12906407797682    5.82835738543798
H         7.04557310972171   -2.49084136485973    6.27151086716135
C         7.45231094819350   -0.67658017241390    7.36895999428157
H         6.76701517980815   -0.92961233497889    8.18637773095406
C         8.87441355901166   -1.08472110790023    7.75375477401294
H         8.91126192301598   -2.15912266981488    7.94522972255758
H         9.17445614653519   -0.57343062102250    8.67239277792519
C         9.83357240600297   -0.72872242862436    6.61782410061818
H        10.85173404182480   -1.02559549971101    6.89305829644805
C         9.41334306576483   -1.46486879311207    5.34807124786738
H         9.45616438312027   -2.54400939072805    5.51087864307758
H        10.09949326982569   -1.21845789299279    4.53500208855305
C         7.99294758018016   -1.04353977688141    4.97680847713265
H         7.68881319893283   -1.55553897649895    4.05694016520252
C         7.96751772199021    0.46614063362167    4.73858605083179
H         6.96156901400860    0.78273797631063    4.43132118218694
H         8.69645380178126    0.69095061019024    3.93840753268595
C         7.40264245176163    0.83367705251371    7.13378645493952
H         7.65506010848877    1.32895126759254    8.06963552786086
H         6.39136533432779    1.13440057048722    6.84947192452179
C         9.80816127183046    0.78025774088155    6.37453914441673
H        10.47645075759906    1.04315707379394    5.55123383376255
H        10.16595533707995    1.29371584434349    7.26956093212067
C         8.37972186603608    1.22642187120851    6.01357264552340
C         8.36884654314960    2.71492796946152    5.76288507914116
C         8.25944920986252    3.40454769893426    4.54862551196858
C         8.67732942029749    3.62126677504550    8.14121657253797
H         9.05838717025925    4.59357944760224    8.45120120510517
H         9.38527349853139    2.84590592924178    8.42447208923398
H         7.71943214429849    3.44771820656722    8.63388098609516
C         8.18308343607367    5.89778853688459    4.06422597155752
C         8.96846413282801    5.76620180660242    2.75555346147652
H         8.58796838685499    4.89552400006188    2.18075878400859
H        10.02912601947407    5.60970592982297    2.97218678999095
C         6.69009552599422    6.05936832017878    3.75245130967056
H         6.13036274353977    6.14711589779435    4.68681289716979
H         6.32858461024830    5.17419863446043    3.22143596184242
C         8.68014800036575    7.12215335365343    4.83543596731825
H         9.73826070211655    6.99988351920262    5.07434544829056
H         8.13202909791936    7.21277579855912    5.77380048707624
C         8.46923201553368    8.37509450429122    3.98458971822717
H         8.82232648507090    9.24781170866303    4.54446379644519
C         6.98267572693873    8.53722139400291    3.66944632871814
H         6.82734647440714    9.43797463602561    3.07225608666812
H         6.41537025115668    8.64821111855767    4.59603510318745
C         6.49089782050685    7.31140676692487    2.90070192208220
H         5.42525194439062    7.42089375829176    2.67623713935837
C         7.27491743706996    7.17126723793601    1.59706829026018
H         7.11059370311735    8.04749052195954    0.96671274887740
H         6.92257600049960    6.29152845267360    1.05323938103598
C         8.76265867612699    7.02541273799536    1.91487367450516
H         9.33034668701135    6.92846326834049    0.98291484981926
C         9.25663630047567    8.24974412296715    2.68266084473225
H        10.32234160101875    8.14799178398360    2.89840300084608
H         9.12106855765397    9.14822939955606    2.07735748860804
C         8.16080021247210    0.63318258356820    0.71950565162270
H         7.77916664135119    0.09445257919965    1.58409471540958
C         8.33416098109067   -0.00503994604423   -0.50090578069430
C         8.80213061706082    0.71615501104882   -1.59219235525824
H         8.94267848307154    0.23756881670973   -2.54843255588005
C         9.07922958486961    2.06111859764156   -1.40769957275106
H         9.44415210504417    2.66336096169903   -2.22479555061102
C         8.88605622716999    2.62693451929939   -0.15920160712987
H         9.10561473299391    3.67566533648986    0.02078328804512
N         8.34327946179152    4.70837263297367    4.90171456639075
N         8.48927769203516    4.87226990825242    6.19163918623000
N         8.51209165289670    3.67438770121252    6.71373754025730
N         8.43713066806698    1.92358641206076    0.87822504562296
Cl       10.59643268305878    2.56316503191972    2.91518724375872
Cl        6.01373183858915    2.76907283743690    2.48640992723311
Cl        7.96694635924363   -1.68073442519688   -0.65046363747305
Pd        8.29480408414245    2.69567640188390    2.71465980316757

