45
CSD_code = VOVDUH | q = 0 | S = 0 | Stoichiometry = C20H17Cl3N4Pd | MND = 4
Pd        2.37226014701099    1.13953140926717   15.77853470480717
Cl        4.01491289827898    2.53302477302806   16.56665681781868
Cl        0.72626266814524   -0.24278393668838   14.99406309114161
Cl        5.42786975789426    1.38782790829968   11.14953965750276
C         1.22106226475807    3.78973344081542   14.74087022557920
H         1.03604396466929    2.75791471028238   14.41943471017226
C         1.53405943711360    6.44543784399801   15.51521799125515
H         1.65711553761635    7.47489861135363   15.81472426730822
N         0.66921314987355    3.21039406758710   17.02942112132865
C         1.13050948126501    1.93867012819303   17.04325222357490
N         3.65953025928408    0.32871084848978   14.50867227285024
N        -0.12850714679204    2.40370194687840   18.78775590165378
C        -0.02981637836331   -2.00556346527409   19.66181682695607
H        -0.82539018277223   -2.56071675091804   20.13629549842443
N        -0.07698353052940    3.50160977027210   18.07631773386147
C         4.05529823334640    1.00982705497659   13.43922371716060
H         3.65906407922698    2.01485530124146   13.31511096301623
C         5.02665546792720   -1.50011123749633   13.85321515980396
H         5.38962090267231   -2.49555983666239   14.05270511025361
C         1.18142208342117   -2.61982215681216   19.39566753582395
H         1.33425974213583   -3.65406152391938   19.66556258299313
C         0.77755094800913    0.04171165177355   18.68648160381780
C         2.00217167428346   -0.58401997674944   18.42009515946122
H         2.82068793331590   -0.01292196193239   17.96553640898116
C        -0.23550719977525   -0.68399455193492   19.30937482904307
H        -1.20144389536815   -0.23495076200761   19.48311049583220
C         4.94937932243196    0.47003359320412   12.52465359563138
C         1.00074886244625    4.17727339778156   16.06266060923276
C         2.19492350707323   -1.90564333984810   18.77576068275687
H         3.14202931932048   -2.38365382192481   18.57203962810711
C         4.12878832325123   -0.89925473233632   14.71803299658911
H         3.75723196693956   -1.41314687766197   15.60203348276256
C         0.59170763622557    1.40659052844510   18.21813254518301
C         1.61801011365914    4.74601108432105   13.82144288800831
H         1.79203893759080    4.45899551992123   12.79489885603544
C         5.45021282038775   -0.80898938914415   12.72920471707642
H         6.14708503327156   -1.24354079645700   12.03045596716206
C         1.14214298585108    5.50353208118513   16.44850309711912
H         0.96241459621511    5.77614683284998   17.47652868754194
C        -0.85331856944942    2.40927599242516   20.02522824965862
H        -0.89540466048708    3.43497842161009   20.38821754255287
H        -0.34632914061680    1.77349999920566   20.74949524069259
H        -1.87273658078447    2.04934463771994   19.87446720549232
C         1.78379092361028    6.06696060895603   14.20669745744932
H         2.10336230641689    6.80234295368816   13.48398994052353

