67
CSD_code = VOVLOH | q = 0 | S = 0 | Stoichiometry = C21H34BN7O3Zn | MND = 4
Zn       -1.72531145540511    9.92838071735042   14.53697411767824
O        -2.47899704252537   11.26348464948689   15.82754317664965
O        -0.37285343005237   11.12023702778007   15.67747909604810
O        -1.24347936758906   12.51912352120313   17.02986161688690
N        -1.35145854255315   11.66223844231145   16.20515386820702
N        -0.67034500236577    9.25846607804903   12.14870821102881
N        -0.91085894534794   10.41803172846022   12.78290010326517
N        -0.67400683963380    7.51364587351242   13.95754252703842
N        -0.90618709022904    8.19555657468569   15.09140854947096
N        -2.77213871447717    8.12700135786216   12.79914642003707
N        -3.28932911806936    9.01858898244260   13.66173095382177
C         0.00956627518365    9.49158645918840   11.02354813452571
C         0.21771902110867   10.84765944644866   10.91602570742188
C        -0.38859030670684   11.40408346911814   12.04697456236337
C        -0.46907653516686   12.86458417790231   12.40012439161645
C        -1.85846924170717   13.19657933185817   12.95181802918731
C        -0.23203892711653   13.72080508472249   11.14989238657365
C         0.62111974487276   13.18557846294503   13.43128318112806
C        -0.00202402562996    6.39347731441489   14.23354138950998
C         0.20977773845036    6.33877494993660   15.59221302472915
C        -0.38581853594324    7.49586817436538   16.10461788387677
C        -0.45571867094286    7.90960733492982   17.54967380294028
C         0.63553454827504    8.95452764118128   17.81844924500434
C        -0.20986622442998    6.69710718756666   18.45610994116182
C        -1.84344889683917    8.47298898712213   17.86899301292706
C        -3.75850248184128    7.48117183307252   12.17259142845561
C        -4.95938519416892    7.96531387323534   12.63989364627131
C        -4.62060607040786    8.94029086198452   13.58425947861035
C        -5.55999694121083    9.78414019743454   14.40106143822853
C        -5.31604255838666   11.26400215176150   14.08703820071432
C        -7.01273522245069    9.43405518062442   14.06276558789310
C        -5.31524615372905    9.51869897008403   15.89029671845614
B        -1.26522139022150    7.92752528417700   12.60966433474049
H         0.29900362274288    8.69212125484351   10.37209499855483
H         0.73003605854606   11.35712467105458   10.12786204246413
H        -2.09887215648803   12.58692884634143   13.81645610264028
H        -2.61751484711153   13.01848564564319   12.19267501615751
H        -1.90332959298267   14.24171257712826   13.24875039208242
H        -0.37427478522963   14.77015882783759   11.39741717198440
H        -0.93180206047950   13.45603279731677   10.36028085333357
H         0.78109461501677   13.59818459254623   10.77634912370217
H         0.54104857776696   14.22202303766500   13.75032784091746
H         1.60607371818202   13.03158539783679   12.99539913150551
H         0.53632412250994   12.54335860368376   14.30193195370550
H         0.27979215116671    5.70829348523635   13.45998051775559
H         0.71767992296813    5.56765577130188   16.13129677023448
H         0.56344086915338    9.31649196545676   18.84129209643715
H         0.54461236233819    9.79754701974752   17.14120204033157
H         1.61980307520291    8.51352077792243   17.67486041033180
H        -0.34323356254646    6.98904867251525   19.49516886040953
H         0.80263682960317    6.31954130922867   18.34058092206309
H        -0.91102525467453    5.89638868686145   18.23145502644665
H        -2.09264933689838    9.30686167542508   17.22121234774552
H        -1.87898461312074    8.81910256851932   18.89924960510684
H        -2.60186012926690    7.70425512057078   17.73473489839916
H        -3.55305357144731    6.72578443421170   11.44142753005736
H        -5.93598998325034    7.65319940667350   12.33660803440070
H        -6.03378728863679   11.87987998931793   14.62313419642702
H        -5.42517613334013   11.45092688792715   13.02071282348063
H        -4.31787164207448   11.55373113474653   14.39686495618347
H        -7.68276160326035   10.05044690459529   14.65753806574276
H        -7.22365901955731    8.39081082146524   14.28578008684910
H        -7.22329204489315    9.62027205874036   13.01226467234780
H        -6.03389179545412   10.07308873709897   16.48868419913459
H        -4.31755453849160    9.83957540899597   16.16956817480238
H        -5.42231477602104    8.45877001791708   16.11168799899406
H        -1.05851159272215    7.08860956639896   11.80096697279764

