51
CSD_code = VOVLID | q = 0 | S = 0 | Stoichiometry = C17H25BCuN7 | MND = 4
Cu        1.48458899512878    2.49496740262166   -0.18031492025252
N         2.47937842999244    2.48865017503216    1.59396067519613
N         2.61718797360837    3.66887710335129    2.20842587132033
N         2.53366640916105    4.14911420576810   -0.73642233471290
N         2.66489947147924    5.11189730933635    0.18295054668047
N         0.07408684295204    3.71207504176171    0.64514029764821
N         0.52350952231452    4.73076675497482    1.38667913754487
N         1.16301313930799    1.08929716615224   -1.19080400903946
B         2.03596593665394    4.94798159617442    1.57894180583876
H         2.24865870643812    5.89054248071115    2.25535219834880
C         3.08307174201315    0.12721991213044    1.92734401452625
H         2.56008030590220    0.01970552189861    0.97937564026708
H         2.59516165058082   -0.49199634853572    2.67925306430194
H         4.10875849736019   -0.22176209127285    1.81295671931797
C         3.06074048787151    1.55728239537211    2.33473670601906
C         3.59828870860082    2.15791150964284    3.47746819206658
H         4.13136172698177    1.68040819452405    4.27499855623269
C         3.29470505305230    3.50272131691146    3.35960315029933
C         3.62683082988134    4.61089554078579    4.29421389271475
H         4.24879488384731    5.35611088085679    3.80090821440613
H         4.16484184857441    4.21513118889028    5.15181869150370
H         2.72138871492968    5.10485971923780    4.64240167810836
C         3.19143067429564    3.68287681889435   -3.06031096533948
H         2.66044070143870    2.75432798957116   -2.86119860423723
H         4.22052230167721    3.45651806192663   -3.33700120506124
H         2.71847151804303    4.19383527714080   -3.89843222313129
C         3.15339839692782    4.53434511871829   -1.84167362594433
C         3.71055497425068    5.79956101962472   -1.63081087184078
H         4.27491707523893    6.38701995178529   -2.32696641213797
C         3.37729083840421    6.13241574721814   -0.32976269286420
C         3.71297910286300    7.37050518291501    0.42262656563660
H         2.80753706127814    7.88661215513250    0.73778046981971
H         4.29493163400413    8.03512111063393   -0.21090667753416
H         4.29313113965906    7.13392597213241    1.31307570313724
C        -2.06035334580782    2.74958907398790   -0.10902456745255
H        -2.65953484427808    3.23706655015783   -0.87767857351852
H        -2.73526659386502    2.22618092961160    0.56737297870888
H        -1.39244573258740    2.03037701275586   -0.57865783766583
C        -1.24970101970295    3.75109867293829    0.63356879244004
C        -1.67739046124433    4.83993149981177    1.39977059399215
H        -2.68642526247216    5.14673737490516    1.58940910356743
C        -0.51841730798652    5.43813017403747    1.86188652387248
C        -0.38004374507665    6.64005575735759    2.72669653992209
H         0.14650083961629    6.39290335529981    3.64705280145458
H        -1.36579283510473    7.02408810787871    2.97688845481312
H         0.18275779917277    7.41928712396548    2.21526684524040
C         0.92211451508191    0.18299381069292   -1.86417691960427
C         0.62498190343532   -0.94498313544879   -2.69870527580955
H         1.52200836807565   -1.54917333720891   -2.83658328035190
H         0.27203807147414   -0.60178750318943   -3.67148326208346
H        -0.14891564344256   -1.55521684957284   -2.23241016636561

