98
CSD_code = VOVNOJ | q = 0 | S = 0 | Stoichiometry = C39H55N3Zr | MND = 8
Zr        0.38971595204180    4.60096365667914    4.66759713374160
N         2.02137032429737    3.23061520824949    4.19899340338491
N        -0.71612609795791    3.30206826448065    5.83752938377212
N         1.40398882208064    6.10353059081529    5.30553074948745
C        -1.61085259468433    4.97708138149676    3.21822689164156
C        -0.65950371393135    6.01763800596239    2.99114440956570
C         0.45480327383653    5.45372851062680    2.31290141152105
C         0.19481449582260    4.07478321878858    2.11342201036191
C        -1.07624910363666    3.78130469578248    2.67285633816453
C        -3.00166410886737    5.18303886897215    3.76689228490831
C        -0.84460897516940    7.49294113857474    3.23010263946387
C         1.61852626635814    6.26013205225670    1.80385409379641
C         0.97944462912338    3.12806208496278    1.24674461484381
C        -1.76205700738289    2.44864702948147    2.53770076191247
C         3.19417166302147    3.67804436857883    3.70727741530890
C         4.18163223309377    2.83655723434466    3.24194644535150
C         3.97312689588211    1.45797582372629    3.26935393715661
C         2.75981215826716    0.99052795862446    3.76840680694917
C         1.82280530257963    1.89683622702423    4.21924404405963
C        -0.75765513753734    2.67560591317053    7.05185788868876
C         0.38698968297461    2.64749178796752    7.89303294264064
C         0.36604935082886    1.90564028013674    9.06089511217556
C        -0.75151723125497    1.19353981951065    9.45183810448707
C        -1.89346033975083    1.27019379521724    8.67735840655055
C        -1.93114083132488    2.01217967158931    7.51144747605840
C         2.82289448765371    2.45247787227244    7.33046125023951
C         1.64881309335464    3.41635833065379    7.55184514351948
C         2.00773845818972    4.41316582060433    8.66060317420543
C        -3.35124246213419    0.87782582563747    5.79150606679036
C        -3.23046544121200    2.08437427691110    6.72907332478124
C        -4.46418704878990    2.17725064429677    7.63031617707355
C         1.49796590759167    6.86248820804613    6.38480722163841
C         0.38353651960190    7.14574785026375    7.24802042933729
C         0.56617654946924    7.91714271176494    8.37723275928850
C         1.80571020857837    8.43824203457047    8.71227354970255
C         2.88319698234020    8.22582907909281    7.86371588340231
C         2.75019036676848    7.48425544689775    6.71283446016368
C        -1.63059711695010    5.77340363352525    7.94515387636746
C        -0.99985601953885    6.66097688983689    6.86731231203730
C        -1.91680627845775    7.86094992968126    6.59389582858064
C         4.89581528188236    8.39868167756168    5.69418595417927
C         3.89680984083220    7.24558766327816    5.75735687077565
C         4.61092499979286    5.93747014831352    6.11519147264784
H        -1.60457049468575    3.15788342631642    5.35426598651228
H        -3.51892918181212    5.95880787898397    3.19773746099918
H        -3.59322576752510    4.27209304787017    3.68146695498999
H        -2.99621889024053    5.49007099395791    4.81801338155113
H        -0.76062999909037    8.03640891068178    2.28576740750728
H        -1.82706145520781    7.69848547685689    3.65022906533106
H        -0.07790694568177    7.88010213536329    3.90815904302539
H         1.29321310330025    6.93458798822606    1.00768411331782
H         2.03916860527973    6.87156365567844    2.60662395344550
H         2.39972164195696    5.62004563480310    1.39606013517892
H         0.57406332698222    3.12697041999631    0.23118318401640
H         2.02933204740565    3.41488997842887    1.18122508799101
H         0.92726209697518    2.10351220714861    1.61918345229323
H        -1.96107108823674    2.23167669571060    1.48533966034461
H        -1.14539786468058    1.63297672676284    2.92553491156893
H        -2.71588836056229    2.43180689614433    3.06202984589787
H         3.31793838244721    4.75794230167278    3.71453891514231
H         5.10715286025371    3.24344200007726    2.86533265777442
H         4.72824463146334    0.77423006876177    2.91679277348027
H         2.55344844190368   -0.06795862438695    3.80972628312951
H         0.87325646942511    1.56579724690884    4.63580142877520
H         1.24856557638011    1.87551168236441    9.68285557820417
H        -0.73976781780791    0.60259512245330   10.35514006638378
H        -2.77546501367271    0.73687510659641    8.99760844545815
H         2.55329295888367    1.66084054167901    6.63338386675995
H         3.69074597802926    2.98196801995748    6.93987407219490
H         3.10730461643836    1.98588610959153    8.27116794966420
H         1.47190796532310    3.99884843645703    6.61945261511600
H         2.88090253759981    4.99426088761111    8.37570015307645
H         1.19007296336698    5.10712221808371    8.83395632000669
H         2.22595573034436    3.89586047522106    9.59206331935677
H        -2.49131214701612    0.81512491287777    5.12698286475410
H        -3.39207698461696   -0.03999783114539    6.37421554231620
H        -4.25568618576454    0.94355171915562    5.18782645213752
H        -3.23514304943698    3.00122570860410    6.12452267812985
H        -4.32092195199126    2.94000781764516    8.39239812557815
H        -5.33735132315353    2.44030866902262    7.03478542222802
H        -4.67199871812579    1.23070580929746    8.12176620255785
H        -0.27632243580362    8.12127242226226    9.02491509721706
H         1.92725378559982    9.02068896664056    9.61327670236066
H         3.83920031799810    8.66141594589117    8.11663090084187
H        -1.01186678770125    4.90127134095298    8.14374901256726
H        -1.74996218758160    6.32835918344888    8.87343400233205
H        -2.61631743511299    5.43141182503453    7.62882190380724
H        -0.88755370101487    6.05076381832469    5.92956330372633
H        -1.44998863266988    8.54970366849107    5.89472179072649
H        -2.87598978222152    7.53974801735418    6.18925630066879
H        -2.10627033201427    8.40043579455033    7.51946683058752
H         5.58605013419333    8.24941105742808    4.86515315598988
H         4.37929323918332    9.34446111103551    5.54834605852378
H         5.48094241050203    8.45999819574943    6.60873482262662
H         3.44489245004353    7.11716696140879    4.76261602572855
H         5.41267813991337    5.72585296723710    5.40816557019999
H         5.04128920652706    6.00619220331023    7.11287375485978
H         3.89291067814081    5.11746041926100    6.09513893035494

