37
CSD_code = VOVWOS | q = 0 | S = 0 | Stoichiometry = C15H18FeO3 | MND = 8
Fe        2.69129709276233   11.29203251389476    3.12709832399868
O         1.19502728735675   12.94573398081142    4.95664803894326
O         2.00331491660856    9.23452899281625    4.66681856879997
O         0.97955213550376   12.74952259813183    1.34878272369320
C         1.86578786225792   12.30822204711375    4.26424267455825
C         1.95258686016395   13.77480843385912    1.24491245400687
C         1.23922742368390   11.68935818615411    2.07972592448245
C         0.10732969363158   10.69773963145789    2.04021385003799
C         0.48734334645227    9.67130321355121    0.95612511566861
C        -0.36106786766835    8.41048916671041    1.04877872451283
C        -0.16180317531324    7.75924933015335    2.41151885844216
C        -0.63101667019810    8.70490140467289    3.50909888161682
C         0.08130649492162   10.05420238913402    3.43090529916312
C         1.53303290711126   10.01466995739854    3.88382259843125
C         4.97147365762662   11.59355830071395    3.57277833576176
C         4.71166775932603   12.11220762749862    2.28254478823716
C         4.23537220195765   11.05444744042943    1.48498993835460
C         4.23625640019033    9.87088825643964    2.27507417604892
C         4.71425277914442   10.20675631002439    3.55339212046076
H         1.43174292951828   14.66796455679026    0.90507860321356
H         2.42227579503816   13.94873830812506    2.21632925753684
H         2.71826709118224   13.49366880854950    0.52059526757712
H        -0.84723426602113   11.16666300792034    1.78158239212954
H         0.38163493637418   10.13669697620732   -0.02531847279972
H         1.53761981696066    9.40294612570569    1.09729825232210
H        -1.41573130859281    8.65935172123187    0.91070609341418
H        -0.07045035780999    7.72060410644576    0.25412421482440
H        -0.71987482508136    6.82305931624089    2.46971446596058
H         0.89586743824041    7.53407975974698    2.55813892409689
H        -0.43053132195335    8.26868545682188    4.48900329380692
H        -1.70878100884289    8.86144293123068    3.41717165116485
H        -0.40855702525143   10.74853625526449    4.12554579237834
H         5.41840822226192   12.13796570393636    4.38820475079718
H         4.93447240368726   13.11203235066993    1.94956837252948
H         4.05297469603490   11.09359526461941    0.42204085269200
H         4.05630825382090    8.87272767722630    1.91122334517040
H         4.89364742491445    9.51922189230078    4.36102154796689

