39
CSD_code = VOVXAF | q = 0 | S = 0 | Stoichiometry = C16H18FeO4 | MND = 8
Fe       10.55522869406567    4.60618117946290    4.54945539069668
O        11.10244138566064    2.44882336070717    2.70498965614700
O         9.85966337094610    2.51930126441197    6.42503091238561
O        12.40067885145097    5.59005058409965    6.00708682325536
O        12.88067888548733    2.29183714048958    5.21749920942071
C        10.93789566091528    3.31497955021130    3.43321197873603
C        10.13620633085293    3.37725743267571    5.71600343274428
C        12.28802147545053    4.61012170841994    5.31208518554581
C        13.34729932299180    3.60220910082876    5.01122592234528
C        12.93453003027977    1.87738199975766    6.57049025708062
C        14.20591562336537    3.77443691172340    3.77396548286022
C        14.09066131433486    5.01603253549370    2.91428554871557
C        15.17403760049383    6.02842099674069    3.28358128783460
C        15.07919589064141    6.37671072639129    4.76415529747277
C        15.41610351850274    5.16850645795004    5.64075023189847
C        14.83376967401653    3.86553268048775    5.13688085499948
C         8.58440183616305    5.79320809305665    4.54619073534547
C         8.97731079812230    5.52674596172478    3.22398105132183
C        10.18102183921499    6.24744876783774    2.98043404982297
C        10.44489528390129    7.05145807109616    4.11762465783650
C         9.49766156265462    6.74436804090719    5.09548445006579
H        13.96934773533477    1.73523534033187    6.89955736987531
H        12.40479615796068    0.92860022328509    6.61658689032318
H        12.44933992019086    2.60065128757642    7.23213299939635
H        14.36814367909001    2.85034005085771    3.23367552638448
H        13.10514437281493    5.47371877750216    3.05057911994753
H        14.18323205601446    4.73690498528754    1.86394756726111
H        15.05323269160574    6.92943330639227    2.67975605168376
H        16.15775038001648    5.60527968444481    3.06795913637953
H        15.77165026234448    7.18578267827547    5.00428325428687
H        14.07158853456017    6.72663066985747    4.98736299638613
H        16.50246136852855    5.04599068573025    5.66670406043143
H        15.07853023416842    5.35539843839341    6.66248661819337
H        15.40163048034291    2.99545491383876    5.44980755295159
H         7.66294856223950    5.47780701261026    5.00855536961401
H         8.42458598067268    4.95732535432247    2.49479983439943
H        10.65550702410268    6.35472877385121    2.01750557747956
H        11.24101855348701    7.77071898402711    4.20954265372580
H         9.40417305701372    7.21608626894201    6.05854500475153

