74
CSD_code = VOWDES | q = 0 | S = 0 | Stoichiometry = C36H33NP2RuS | MND = 8
Ru       -4.14115903755472    1.10771133971935   13.34778037677769
S        -3.73516607349897    2.64811768216762   15.19887407544728
P        -2.91381113640637    2.48370880712414   12.00835093954694
P        -5.82752119302573    2.44582264370058   12.72650382292033
N         0.52512941084797    2.29987274462336   16.69604798224340
C        -2.09660823673871    2.47827929674867   15.74002111905021
C        -1.16552851225930    1.62459168299548   15.14987359211268
H        -1.43863437030758    1.02350520732206   14.29075549079768
C         0.11397530864794    1.57934372281023   15.66430561081251
H         0.85892317282586    0.92596131411316   15.22585734084931
C        -0.36302098473730    3.10874475618113   17.25831674630565
H         0.00243424062519    3.68461782467261   18.09957645929977
C        -1.66787505416664    3.23788186777492   16.83298724949571
H        -2.35586391664350    3.90945475403544   17.32228128852263
C        -3.63015402084972   -0.63164282618061   14.72632911840183
H        -3.03688586364412   -0.60917193150412   15.63178884055165
C        -3.16670925894917   -0.98445195353524   13.44239759401305
H        -2.16288554303605   -1.31149742312030   13.20077358979797
C        -4.29273326860502   -1.04037568091822   12.56748687099645
H        -4.30205504880479   -1.46020914739877   11.56960663977015
C        -5.44345885714009   -0.72421453927908   13.32985446062177
H        -6.46686826318052   -0.79117273657213   12.98162865455464
C        -5.03730356642517   -0.44394436896881   14.65782166417060
H        -5.69560600894329   -0.29039257921516   15.50280384951417
C        -3.97688067437956    3.91514458744047   11.42657206081359
H        -3.37316141355241    4.82190304283565   11.32813408129810
H        -4.35361079663884    3.63123086369959   10.43653655953351
C        -5.15251306462438    4.12657084975537   12.37383908938296
H        -5.92011616842133    4.77426056376390   11.93753069019888
H        -4.81234837939772    4.54551295569528   13.32569514994857
C        -1.44779287713371    3.37133744328314   12.64192758176713
C        -0.17590610153108    2.84799062299226   12.42780615656956
H        -0.05885763892288    1.96373390341056   11.81473833282594
C         0.92953393642081    3.44856614664187   12.99972087099191
H         1.91363138880624    3.03709179385103   12.82997168762572
C         0.77524685907782    4.56568078868300   13.80359446719775
H         1.63774440405221    5.02237988038116   14.26498993114634
C        -0.48792636999623    5.08727392576588   14.02588236125884
H        -0.61191093364546    5.95249886003534   14.66072007089274
C        -1.59600208034573    4.49416775567602   13.45029954080643
H        -2.58265161809260    4.88754289569978   13.64921351983964
C        -2.23849653534452    1.93778672393038   10.40223981219554
C        -2.18336382430226    0.58581531169600   10.09646093873995
H        -2.54120580349150   -0.12785010547349   10.82560639572434
C        -1.66948584839570    0.15902234944821    8.88418967899547
H        -1.62827497848306   -0.89613264649584    8.65482704027427
C        -1.20523584677495    1.08712718974702    7.96855506784014
H        -0.80515636550585    0.75878055338181    7.02057975422034
C        -1.24536739329616    2.43949642045212    8.27268728978169
H        -0.87235540522759    3.16286054424980    7.56222892706028
C        -1.75484627180087    2.86596542174098    9.48409776277170
H        -1.76747729129724    3.91862905957324    9.72776500064681
C        -6.66979817365853    2.13556050954451   11.14205798991568
C        -6.05091665705230    1.30145501444462   10.21977766956138
H        -5.11752892086847    0.82227544959149   10.49693245471487
C        -6.61489997644654    1.09852011667769    8.97323314773247
H        -6.12858899863165    0.45099846111536    8.25811975615093
C        -7.80318062149064    1.72996246073116    8.64501456530408
H        -8.24965360915802    1.57058661362558    7.67453500688030
C        -8.42062102042905    2.56997770977620    9.55937194690624
H        -9.34455466232851    3.06520261115824    9.29797754642288
C        -7.85592226429399    2.77966990658959   10.80374557881199
H        -8.33296629965059    3.43647736419391   11.51880850036332
C        -7.18677910144310    2.68868345528383   13.89805799514487
C        -7.06816135724258    3.58284155486466   14.95825912943368
H        -6.18718841031571    4.20050284293038   15.04564913331691
C        -8.06616024257860    3.65826743037896   15.91246710980709
H        -7.97249717637245    4.35678606939616   16.73091775857160
C        -9.17801093139543    2.83604264463760   15.82782271582218
H        -9.95397279179797    2.89647359879874   16.57674488612299
C        -9.28744779295970    1.92411082795224   14.79003949925693
H       -10.14636923823799    1.27104140384681   14.73089092687839
C        -8.29377503001322    1.84411116584062   13.83316470933576
H        -8.37293354944512    1.13062462951583   13.02267877661222

