93
CSD_code = VOWHIA | q = 0 | S = 0 | Stoichiometry = C36H44N6NiO4S2 | MND = 6
C         9.28780905050797    8.32218089788597   -0.52923133870610
H         9.62047126906414    7.28859103760683   -0.61117005820101
H        10.06227939717631    8.97477852770616   -0.92635456444282
H         8.37993343872889    8.45013781116496   -1.11456768712265
C         3.52980394591833    8.74057682820796    3.93501632590682
H         2.90487602746950    9.62455286260196    3.99684407230460
H         3.58870555833174    8.23167654318219    4.88958471783028
H         3.13815618072610    8.06218148694706    3.18428036920540
C         5.46391650365500   10.44556126322327    4.78519522205179
H         6.42775732558115   10.92003206182691    4.63500138171477
H         5.45164767488520    9.92209664581984    5.73372300384538
H         4.68116502722973   11.19375988241721    4.74210926133782
Ni        5.67235596546950    9.38961394911659    0.00000403590166
S         5.23091298971268    9.21809684390682    3.41771103241132
O         4.27600038815998    8.13622527029098    0.09533169891874
N         5.73099737466381    7.11526197857993    1.50695234171226
N         6.64973360646670    8.00500868089249    1.01090595971904
C         4.54292259655444    7.24236883385664    0.95553615398102
O         5.04724710904864   10.05578007039326    2.21832451957403
N         4.70956136071671    5.44721728141803    3.26523456599790
H         4.90071984524655    4.63006655380975    3.82057511889830
H         5.49992032918256    5.95508494772884    2.87192196149652
C         3.48652344266893    6.28576753243603    1.34987314469630
C         2.31250629445844    6.26410507870228    0.60082836208364
H         2.23068826017170    6.94868947418947   -0.22955068865883
C         8.19040796659998    6.76029323796440    2.38498266533585
C         3.62351880150642    5.39770628869028    2.43904098940131
C         2.57179460259811    4.51467575798791    2.71139016812209
H         2.67878468136711    3.82735017950890    3.53950605693025
C         7.85515453761835    7.84099905791650    1.43073614450470
C         7.97094834758539    5.42523871517168    2.05839010935108
H         7.54596326198193    5.17939359447912    1.09735677410221
C         9.06226768189833    6.07045843090489    4.51996908984740
H         9.48574722256963    6.32378261390641    5.48119673120969
C         1.42259502724314    4.50860976902940    1.95133431553112
H         0.62977903546558    3.81229283941128    2.18454131266702
C         8.74244125928121    7.07351849644191    3.62305326883334
H         8.90600568074933    8.10872898400975    3.88537998769189
C         8.98752787761513    8.68024315770169    0.92893893951640
H         8.69739940965612    9.72850062446080    0.97256563703712
H         9.87064186855989    8.51502821447366    1.54950018147812
C         8.30175054970466    4.42458900509511    2.95353977631226
H         8.13575626317575    3.39044795186654    2.68795492921819
C         8.84488292917124    4.74400133779796    4.18716972191966
H         9.10024915489673    3.96129949459386    4.88656870909442
C         1.28429152529815    5.39094317495817    0.88915292900587
H         0.38583425617106    5.38916385147336    0.29083427070179
C         2.05694330221849   10.45713999963229    0.52934706826609
H         1.72430803053750   11.49073942010325    0.61127532755926
H         1.28247038262475    9.80456892998475    0.92650912352924
H         2.96483575874222   10.32917431809985    1.11465563473677
C         7.81487866373682   10.03856680724347   -3.93507249026987
H         8.43981728264954    9.15459623124684   -3.99687063961515
H         7.75594853274059   10.54741855166755   -4.88966513711184
H         8.20653508370906   10.71700491165077   -3.18437951759479
C         5.88075790601593    8.33353484659524   -4.78513853719121
H         4.91692148897394    7.85906727032024   -4.63490501946160
H         5.89300379580692    8.85696405529748   -5.73368615046833
H         6.66351219055964    7.58533971065037   -4.74204203014945
S         6.11378804500089    9.56104861149607   -3.41770318651349
O         7.06871540568617   10.64299645351682   -0.09535137483868
N         5.61371494679863   11.66393225871826   -1.50698791083718
N         4.69497518250451   10.77421346784728   -1.01089816127736
C         6.80179658828735   11.53682611619735   -0.95558472299264
O         6.29749562550352    8.72340866841458   -2.21829412697429
N         6.63511902957424   13.33196408227658   -3.26529424291539
H         6.44395849019855   14.14911492333284   -3.82063350294113
H         5.84476564669946   12.82410601605441   -2.87195786999537
C         7.85820308154860   12.49339963245166   -1.34996770949442
C         9.03224845264499   12.51504035821540   -0.60096569868730
H         9.11407980488264   11.83045954439622    0.22941474534221
C         3.15427163138565   12.01895966493141   -2.38491568003788
C         7.72119057520890   13.38145449291155   -2.43913878331519
C         8.77292688900036   14.26445754937102   -2.71153296270470
H         8.66592288830805   14.95177801230706   -3.53965132487129
C         3.48954050255481   10.93825069670552   -1.43067831873385
C         3.37378266036048   13.35401033960526   -2.05834178063987
H         3.79882108163729   13.59985030643493   -1.09733063954422
C         2.28232671946109   12.70880518355603   -4.51986399348484
H         1.85879275444930   12.45548661047820   -5.48106914612389
C         9.92215374158090   14.27050242144081   -1.95151882685586
H        10.71497863658896   14.96679749819915   -2.18476079227250
C         2.60216965289887   11.70574197146531   -3.62295764881486
H         2.43856398922173   10.67053441807808   -3.88527029738169
C         2.35716756376019   10.09903906401909   -0.92882541123005
H         2.64727319163908    9.05077490956716   -0.97243632569028
H         1.47403565351515   10.26425765259453   -1.54936002716286
C         3.04296343724960   14.35466356867534   -2.95348124595367
H         3.20899899177138   15.38880174029464   -2.68791091376530
C         2.49976290537043   14.03525847398596   -4.18708301907408
H         2.24438353981711   14.81796292331842   -4.88647430097916
C        10.06047410293973   13.38817417656719   -0.88933495460729
H        10.95895327112376   13.38993601836703   -0.29104909712440

