91
CSD_code = VOWHOG | q = 0 | S = 0 | Stoichiometry = C36H42N4NiO6S2 | MND = 6
C        -0.01349570351291   12.14400930520370    7.76375704179539
H         0.78495305583024   12.33853135824764    8.47794291371647
H        -0.33117070855359   13.08724420516413    7.32469773903871
H         0.36405044061579   11.49412390172516    6.97768560301198
C         0.99064681330362    9.63026812472222   12.26677211985633
H         1.97753834768519    9.38865979875234   12.63214171667281
C        -0.04067565960353    9.86737634556397   13.15979243001677
H         0.13903528704101    9.80944845186380   14.22308590988528
C         1.65815023350282    3.56309082060216    8.09739148962850
H         2.02223804924133    2.81180584632497    7.41308952488860
C         1.62754432968230    3.31236028837082    9.46193691072548
H         1.96793100128633    2.36157986851093    9.84510880459995
S         1.27274174930706   10.23818934275533    3.96861398101935
C         3.11157843463593   10.22657402394172    3.77713790017598
H         3.56424090658275   10.80396327552309    4.57496269250356
H         3.36710996044997   10.63434137236585    2.80639622477204
H         3.43937604140369    9.19464207710679    3.84464331578936
C         1.12256084673763   12.07370255714811    3.89886204934066
H         0.08978689004686   12.32967696878803    4.11405177403638
H         1.37856959588207   12.40273920486844    2.89859505860697
H         1.77414095872188   12.52430727359744    4.63924508434753
Ni       -0.83589194967515    8.71672330486001    6.25243965267244
O         0.15205002977351    7.17550686606555    6.66516949604681
N        -0.09608749152398    7.97461684612368    8.77895456332613
N        -0.54099115725864    9.12717107875709    8.17651585951439
O         1.05769056461611    9.88813499509574    5.38557606923622
C         0.24626897452466    7.03856159207758    7.92061642311994
O         0.27584986367073    6.40419614291273   10.76727701704289
H         0.04895047964977    7.23623495591617   10.26873216710030
C         1.21885690790546    4.78080768590955    7.62221487570896
H         1.23093818575439    4.99658120224302    6.56487742894612
C         0.74723437414649    5.76725818114374    8.48622140514431
C        -0.75516390257715   10.11838930194597    8.96779806700984
C         0.72305094958768    5.51348267641699    9.87047471228810
C        -0.50571992474818   10.01469356851768   10.42211240921474
C         1.16501665716271    4.27386036907779   10.33590433458092
H         1.13650043671270    4.09510067701011   11.39949498432484
C        -1.19449251744174   11.45101831306134    8.44977112784838
H        -1.98509120333882   11.30300578069098    7.71631060137961
H        -1.56336084753507   12.06354728246931    9.27456667037763
C         0.76050189001054    9.69739767012420   10.90548465217688
H         1.56325606670278    9.51496870899667   10.20753899411687
C        -1.53585078221763   10.25849187984452   11.32509064893818
H        -2.52398124370627   10.49343612786607   10.95609330841337
C        -1.30399399370463   10.17852835013707   12.68594594521290
H        -2.11173169636161   10.36218914276065   13.37962767009059
C        -1.65826251443405    5.28948950882073    4.74100786523420
H        -2.45667880500458    5.09499616651912    4.02677661766701
H        -1.34062363437098    4.34624120501482    5.18006352706944
H        -2.03583561398203    5.93936481517685    5.52707495691396
C        -2.66198176621063    7.80333038042658    0.23791336824821
H        -3.64883836609948    8.04494072425204   -0.12754907954924
C        -1.63056754539783    7.56625312809257   -0.65500828841982
H        -1.81016767737511    7.62422193738047   -1.71831846511174
C        -3.32983383941159   13.87040799249165    4.40755185549507
H        -3.69396456221456   14.62166517456642    5.09185811782387
C        -3.29919533027853   14.12116929543421    3.04301128611822
H        -3.63957875317456   15.07195615209865    2.65985155679938
S        -2.94449410505017    7.19523725522150    8.53628224539646
C        -4.78333073788882    7.20675544971688    8.72776867097732
H        -5.23597231177341    6.62935886274535    7.92993686511337
H        -5.03882625548623    6.79894889332253    9.69850266201591
H        -5.11118678147597    8.23867109557828    8.66029370727429
C        -2.79419433879510    5.35973276715634    8.60603487649226
H        -1.76141906376426    5.10381945890351    8.39078005185863
H        -3.05011625271607    5.03069690168354    9.60632348920393
H        -3.44579629241124    4.90907524779033    7.86570450760957
O        -1.82382396155189   10.25793916576360    5.83971834677680
N        -1.57562845297723    9.45887762263552    3.72592103675455
N        -1.13076234576107    8.30630402202643    4.32835015080612
O        -2.72946904593001    7.54531061989691    7.11932037778523
C        -1.91799641710815   10.39491817830372    4.58427206022626
O        -1.94748571819684   11.02935585277004    1.73763173841905
H        -1.72060987780235   10.19730169844792    2.23616350852927
C        -2.89057057823928   12.65267276296608    4.88270849547570
H        -2.90271658712915   12.43685718020545    5.94003342696709
C        -2.41894661580972   11.66623529701795    4.01868647963426
C        -0.91650702683496    7.31511805212857    3.53705105159176
C        -2.39472924438507   11.92004173480344    2.63443892079444
C        -1.16580065817909    7.41886579621083    2.08271465006174
C        -2.83665953589322   13.15968383300017    2.16903017502424
H        -2.80810248734209   13.33847217040206    1.10544697466146
C        -0.47721583944980    5.98247549187458    4.05507654448010
H         0.31334650853712    6.13046137942456    4.78858298711938
H        -0.10831441251306    5.36995685236301    3.23028837785357
C        -2.43197544823237    7.73616334032536    1.59922242426223
H        -3.23480317448931    7.91856124320097    2.29709156099796
C        -0.13557229062369    7.17511211308856    1.17983442678664
H         0.85252095321770    6.94015971446568    1.54892647975374
C        -0.36729272901287    7.25510529910569   -0.18104230095185
H         0.44051999261337    7.07148105600758   -0.87464765630561

