24
CSD_code = VOWMOL | q = -1 | S = 0 | Stoichiometry = C10H4BrNO7Re(1-) | MND = 6
Re        6.45754435031438   10.60723105849420    4.03894783220166
Br        4.86074662070415   11.90416950042838    5.54829964286587
O         8.09078696539107   11.81128660690505    4.92098669378573
C         4.96719203760899    9.74060889124455    3.15177432148866
O         4.06877012418165    9.25844994249938    2.60908306560280
C         7.75464381479504    9.77638691018690    2.86796428749283
C         6.56694136844752    9.19288203966628    5.37079150807757
O         6.64238800341786    8.42563531031172    6.22237836576103
O         8.51084652314055    9.27340458478688    2.16076148162179
N         6.45769731753915   12.47083509616745    2.89055321015533
C         6.38392064492064   15.09084284816883    1.93516412156312
H         6.33404906381189   16.10262684179065    1.56323435758273
C         5.53982020143001   14.10666408378638    1.41382614158753
C         5.61480551055421   12.81419824094877    1.92468584867101
H         4.95539389069816   12.04706859969616    1.53643067094135
C         7.27004213973517   14.72291602740591    2.92446839198866
H         7.96441763180290   15.41269620272215    3.37946195457743
C         7.27997053930194   13.40982926448093    3.37582511325256
O         9.11985201153402   13.78325281892983    4.82519216505731
C         8.26474691267475   12.97499131662425    4.48859115815136
O         3.89904151416040   13.56457271667202   -0.22886913384230
C         4.57057058428874   14.38887916944594    0.33952097736820
O         4.49921698147812   15.69623288439507    0.02118338737327
H         3.84039524806386   15.81723904423459   -0.67945556332579

