21
CSD_code = VOWRAA | q = -1 | S = 0 | Stoichiometry = C9H5CrO6(1-) | MND = 6
Cr        1.76229508662795    2.33169131396984    0.45484489380000
O         4.64654635446989    2.33061210838800    0.03779829007947
O        -1.14048501835478    2.33170037456011   -0.33971570448644
O         0.97869156136030    0.07831228071141    2.29360001857344
O         2.03785134607212    0.05691841864806   -1.50505905821957
C         3.81869183263405    2.33103546324511    0.95129681203967
C         4.43606036792144    2.33176693549846    2.34984887554619
C         3.70676450549742    2.33178614431006    3.45808224259432
C         5.93828729977121    2.33206605779161    2.39399995049387
C        -0.01179462682052    2.33202644104859   -0.04513887575951
C         1.36287655585443    0.96263254876101    1.64322246951099
C         2.04212713115454    0.95080589930363   -0.76711618398163
H         4.15678911999155    2.33199891541438    4.44162635431602
H         2.62885995475908    2.33161478804087    3.42770824818077
H         6.31616648915840    1.45582812937573    1.86841341929164
H         6.31270758528459    2.33217396663752    3.41683086578580
C         1.36274449181881    3.70067093287911    1.64326544977932
C         2.04298512924909    3.71285502728162   -0.76653450150209
H         6.31592054068353    3.20835508972705    1.86831701159106
O         0.97805037958152    4.58470640289128    2.29372465745927
O         2.03946391328537    4.60674276151655   -1.50451523509253

