26
CSD_code = VOWWUZ | q = 0 | S = 0 | Stoichiometry = C13H5F5FeO2 | MND = 8
Fe        3.16182695955490    3.19346633668009    5.99338125039002
C         3.33112775420849    3.19350173212445    7.95881407724005
C         3.47448028416889    2.02180722484290    8.69166342821409
C         3.72269028844414    1.99396490639284   10.05886442173740
C         3.84202685195244    3.19349130250904   10.75224088361548
C         1.88571508578602    2.00188319388499    6.05877751881483
O         1.01403665168208    1.26779868974880    6.08241585678394
C         5.40776729953053    3.19351457686729    5.92034687483097
C         4.91596201794977    2.04758258901845    5.25385577934687
C         4.14708700926951    2.48625458594521    4.14562914345638
F         3.38852809279803    0.84618793138661    8.03278151165316
F         3.85382870408717    0.83064099671375   10.70724230034581
F         4.07945643726027    3.19348509725500   12.06784588552938
H         6.10149440757635    3.19351999610592    6.74569078778523
H         5.19092961933624    1.02853562693816    5.46566650562845
H         3.73529057462113    1.85398616276787    3.37604253008387
C         1.88545043779147    4.38479709808033    6.05894448348836
C         4.91592272654631    4.33943217604333    5.25386757084708
C         4.14706110202826    3.90073958962491    4.14563909682591
C         3.47441986899487    4.36519410194602    8.69168075790094
C         3.72263495392302    4.39302408531367   10.05888324043998
O         1.01449394673372    5.11956018047592    6.08209550816575
H         5.19086738083981    5.35847815164496    5.46567792495967
H         3.73524921977301    4.53298993759558    3.37605328419667
F         3.38842661916934    5.54082163590672    8.03281879090130
F         3.85372570597422    5.55634209418702   10.70728058681856

