81
CSD_code = VOWWAH | q = 0 | S = 0 | Stoichiometry = C30H42N4PdS4 | MND = 4
Pd        9.17777977919069    4.63344793965484    0.00012131462818
S         7.85528351679100    3.22136010075516    1.28671369035304
S         5.40792959309144    4.15226768515968    2.59581909696008
N         8.56893747839612    5.97691052422710    1.41813806298854
N         7.36646137150867    5.77757298430954    1.97865052753348
C        14.72102811370155    7.23453744429963   -0.12756880574929
H        15.04883738349243    6.26819971646221   -0.50122757666561
H        15.37198286087138    7.51363470383122    0.70167635824662
H        14.84160109178965    7.98159940437167   -0.90885434149007
C        13.30204841082626    7.17221116184512    0.34493712544794
C        12.74307398100028    5.96629188440080    0.75294697048203
H        13.33660486093512    5.06382198951107    0.71116182650052
C        11.44097407509383    5.90403950696411    1.21840994468912
H        11.06437327227829    4.95526092150201    1.63382230238311
C        10.66085677654093    7.07320153704527    1.28616037298770
C        11.23756354255653    8.28653294834577    0.91012530509299
H        10.64907611902526    9.19087636067492    0.96649011171604
C        12.53335897723447    8.32911815406645    0.43786510913379
H        12.96016595552080    9.27468021307158    0.13490323697204
C         9.28722657628364    6.99091101977170    1.75279472701320
H         8.88397136819298    7.75551295401479    2.41341023473885
C         6.95220304368243    4.54478968106056    1.90959814242387
C         4.91741369459904    5.75896316143417    3.32617117438413
H         5.59592256561156    5.95240879185992    4.15621661535662
H         5.06863086447313    6.51442728992941    2.55766068343700
C         3.47303609909662    5.68944401495802    3.79087941349609
H         2.82936979608467    5.45759855773796    2.94001704624901
H         3.36681752458573    4.87854013981024    4.51424230070525
C         3.02751283071005    7.00418796849015    4.42779207129712
H         3.13616463186389    7.81432061892570    3.70274648361551
H         3.67615730656256    7.23227112204310    5.27656941897392
C         1.57771062945270    6.93720138004392    4.90205050260919
H         0.92900637178166    6.71642345058443    4.05115254413718
H         1.47122585494939    6.11963599030283    5.61858733593616
C         1.12454220695406    8.24024413012463    5.55633543169232
H         1.23096860515917    9.05986542444832    4.84171921643227
H         1.77141559201428    8.45930633222254    6.40895334060942
C        -0.32283837817196    8.16268003556637    6.02616999056534
H        -0.62489374246000    9.09686881556957    6.49363648795601
H        -0.44566692217803    7.36088447201463    6.75097117467062
H        -0.98681681510136    7.96831975572118    5.18664766021052
S        10.50073070382690    3.22139328818442   -1.28623463343806
S        12.94828298588997    4.15279284575110   -2.59521886895877
N         9.78740318851626    5.97688739477732   -1.41685096227545
N        10.98996680577802    5.77770739685576   -1.97719392216006
C         3.63526838123776    7.23432387539677    0.12788850151916
H         3.30752206433744    6.26802475027705    0.50175411974414
H         2.98414192147695    7.51338562202166   -0.70124753390670
H         3.51500503564128    7.98150384240027    0.90914289625668
C         5.05416344414033    7.17191066099832   -0.34489016967439
C         5.61317869896496    5.96596331773790   -0.75276542201930
H         5.01965498491458    5.06348746447115   -0.71099698729528
C         6.91535627086885    5.90369695409358   -1.21805045903773
H         7.29208300213222    4.95489295855464   -1.63334140744564
C         7.69536719325711    7.07293195241643   -1.28584420389366
C         7.11857328792135    8.28632301311555   -0.91017516408797
H         7.70705498812966    9.19066531258559   -0.96672260593700
C         5.82274583546391    8.32888113531994   -0.43802410268617
H         5.39581310069821    9.27445946234438   -0.13531442568540
C         9.06909178250360    6.99066247154379   -1.75211233785401
H         9.47257123521959    7.75494930129960   -2.41293699359404
C        11.40407444126040    4.54486801491429   -1.90865995529918
C        13.43808714442211    5.75956710629385   -3.32593291107983
H        12.75936169100247    5.95268692486464   -4.15588196904446
H        13.28687474281467    6.51519945245496   -2.55759190427438
C        14.88239946341422    5.68980708450713   -3.79081206683396
H        15.52600814929708    5.45787537185181   -2.93993544860277
H        14.98827557563785    4.87875995081861   -4.51405706384013
C        15.32836951250463    7.00425182306590   -4.42794586379944
H        15.22016655275977    7.81455256582702   -3.70302446612513
H        14.67974317961828    7.23250514882019   -5.27669584309973
C        16.77809666291022    6.93675874976738   -4.90243874364845
H        17.42696637455933    6.71605173693449   -4.05164410014876
H        16.88430673815555    6.11902648795241   -5.61882636260427
C        17.23092028932495    8.23976086159696   -5.55704075388265
H        17.12443687603241    9.05937296343365   -4.84243119767638
H        16.58364845291006    8.45851997703212   -6.40943195139417
C        18.67813609444779    8.16294550891442   -6.02746024955665
H        18.97934304422659    9.09738201475498   -6.49499815121572
H        18.80115171409270    7.36131645108908   -6.75240364364436
H        19.34264152372686    7.96897849818206   -5.18826529743694

