25
CSD_code = VOWXAG | q = 0 | S = 0 | Stoichiometry = C12H5F4FeNO2 | MND = 8
Fe        3.23526166325119    3.20695168535473    5.85721200192408
F         3.40119344366417    5.56314849079849    7.92290386991677
F         3.80825706886159    5.45427632423675   10.64234238614613
O         1.09200823645808    1.27286360193021    5.88303881401702
C         1.96058527073219    2.01070468591918    5.88552155052662
C         3.34580586616987    3.20697358771696    7.81531451185098
C         3.47057882262498    4.37539846823314    8.56281766988929
C         3.68542976358288    4.33317587719041    9.93589050830022
N         3.78675824696041    3.20702392087449   10.60384388313052
C         5.48187688504418    3.20700622523750    5.85763097147378
C         5.01083095819469    2.06119420081063    5.17566089408620
C         4.28060081924326    2.50015906327498    4.04101017986255
H         6.14977439291929    3.20699837196176    6.70427679695810
H         5.27974745579685    1.04221974147067    5.39586470836778
H         3.89472531114339    1.86668214394628    3.25911020013598
C         1.96043293967763    4.40305353902545    5.88557671080627
O         1.09221624739272    5.14122663264960    5.88293094135790
C         3.68538192068718    2.08084825702638    9.93593379210199
F         3.80815367412335    0.95977336222521   10.64243184644330
C         3.47053316979607    2.03857578437963    8.56286225371998
F         3.40108678722887    0.85080392933680    7.92299572737785
C         5.01076232211398    4.35283598527468    5.17574165713469
C         4.28054348854366    3.91390107671508    4.04107018642762
H         3.89462685437358    4.54739805055034    3.25921047005299
H         5.27962839141595    5.37180699386052    5.39600746799147

