67
CSD_code = VOXBAL | q = 0 | S = 0 | Stoichiometry = C32H28CrO4P2 | MND = 6
Cr        2.93730917010671    3.80312328227142   13.92547191846816
P         1.08019100227964    3.64266567482403   15.36475154471200
P         4.16902110591976    4.87953187608044   15.61617929424694
C         3.62752211393919    2.13573195578602   14.36011518298348
C         2.14688484748222    5.31298076385554   13.19976348754985
C         2.05338696304079    2.92504189620469   12.58182045053528
C         4.30786482838369    3.92875462799586   12.70922771922319
C         0.15972950823854    5.17550961407057   15.87549989443601
C         0.77226885942271    5.98117548521969   17.01926616076365
C         2.18517107391370    6.50060739564344   16.73459694941073
C         3.29062919279091    5.50853124762154   17.12186566267985
O         4.05693546130758    1.06511198866477   14.41277071711897
O         1.60569037825886    6.12531232650668   12.57599572475859
O         1.57392239936627    2.39164542978810   11.67481964510018
O         5.09657822941475    3.93348120403763   11.86213530064407
C        -0.23512735921696    2.77083941571738   14.45655388340811
C        -1.09504209418203    3.44131153495534   13.59181292160038
C        -1.99032881339878    2.73051352022271   12.81346610732140
C        -2.02799231188565    1.34789335768877   12.87944412078595
C        -1.15877865606006    0.67310995946869   13.72126890268092
C        -0.26235662034531    1.37872731168261   14.50052335717990
C         1.04577836186433    2.68831266508360   16.92935933525088
C        -0.13011395226072    2.49811399225510   17.65022980802771
C        -0.11338030140907    1.76607260590516   18.82281926239630
C         1.07125728614399    1.21271280028578   19.28396470411916
C         2.24177313225002    1.38623677036410   18.56468908974642
C         2.22697740503385    2.12035719358889   17.39165138219768
C         5.50147049072401    3.86072842666170   16.33594485576711
C         5.54638817872193    3.39895774563248   17.64619368039136
C         6.58042096106749    2.57188287722315   18.05353227619640
C         7.57164054067551    2.19910709092977   17.16302335338458
C         7.53080415191428    2.65383233714057   15.85337891509000
C         6.49969272403342    3.47421153105100   15.44236137629739
C         5.16192322856204    6.36392176435743   15.21299462003234
C         6.11333074278545    6.84698540096710   16.10856565116825
C         6.85603957529224    7.96897788998966   15.79477794533353
C         6.65873834909341    8.61796750284376   14.58556676643475
C         5.72051021340979    8.13773737490501   13.68794000339814
C         4.97629693865052    7.01263092205971   13.99913498305440
H        -0.86460055016516    4.88834951499629   16.13881641354983
H         0.11594679493631    5.80742601550582   14.98261864147020
H         0.77886463941509    5.38071222588500   17.93362248386747
H         0.11453522237281    6.83644528642669   17.20045995016003
H         2.26587649321132    6.75161844798593   15.66985834331196
H         2.33327286809629    7.42845498434925   17.29090411526311
H         4.01850469207668    5.97712366296094   17.79160901765476
H         2.85563571918259    4.64653575488464   17.63600329450908
H        -1.05716192756051    4.51848026010014   13.51138566936847
H        -2.65445572711417    3.25802319462503   12.14439453563957
H        -2.72404524638661    0.79620677071092   12.26536343901128
H        -1.17373683989422   -0.40614666174689   13.76233865582075
H         0.43100627957914    0.85286635894650   15.14476868859438
H        -1.06032711430360    2.91085489074080   17.28510234994551
H        -1.02841741427575    1.62144304109981   19.37855921120313
H         1.07836090244605    0.63993595621686   20.19943127280131
H         3.16529641940443    0.94684043382132   18.91248295325261
H         3.13745372569189    2.25150910189398   16.81746588165076
H         4.78051026444981    3.67545005299563   18.35648201063800
H         6.60878661981418    2.21616841832218   19.07362936393968
H         8.37347571812078    1.55214647060024   17.48636800281893
H         8.30015363603425    2.36144711356785   15.15437139789786
H         6.45033338020669    3.82542808695456   14.41844221171307
H         6.28042191030887    6.33299872306690   17.04625266737845
H         7.59456116145941    8.33740970873136   16.49195214913210
H         7.24205792756082    9.49364292466735   14.34221687801115
H         5.57085858034775    8.63648688579192   12.74189698126401
H         4.25260455895499    6.62339561617551   13.29472646638275

