94
CSD_code = VOXDET | q = 0 | S = 0 | Stoichiometry = C37H52N2P2Ru | MND = 8
Ru        4.51557030570378    5.45859104593662   10.55171125185800
P         5.66165483912450    3.58694675023641   11.30614954250120
P         5.63579676822119    7.14661839907818   11.67343698535096
N         2.00953524922979    8.40845804807612    8.83206630937718
N         2.38633643432983    2.38625341918442    8.72001258803931
C         3.06232631710753    5.16620792162957   12.23438481298510
H         3.21635459836337    5.91092232850185   13.01292674211476
H         2.80622897068826    4.18684690511482   12.63032293083787
C         2.41194679411274    5.56643243689757   11.05906513023711
H         1.77282384490190    4.86105207382656   10.52848754897795
C         2.63576629385333    6.85074383586410   10.51224682374190
H         2.88998245718083    7.67372796345132   11.18224211555340
C         1.93365865383264    7.23833465639885    9.31468268426807
H         1.32564044676384    6.43941108599782    8.86111310601615
C         1.30359731252772    8.83524484850955    7.64893239082295
C         0.39632283286526    7.79293414187765    6.97754428607502
H         0.97331342984957    6.93794774952052    6.62778183033477
H        -0.09349493155436    8.24466976243462    6.11843821229529
H        -0.37294997483839    7.44544274849008    7.66527587839899
C         0.45744993735865   10.04425685719511    8.07412755211466
H        -0.32311525619649    9.73053510604691    8.76403538111502
H        -0.00425855449422   10.51035600430428    7.20695446604178
H         1.08853883046404   10.77108936277697    8.57848293265248
C         2.37015758558682    9.29481097010029    6.64397357711815
H         2.98389834328018   10.06922057802693    7.09448128976035
H         1.90067794616006    9.69129260134901    5.74682229633957
H         3.01296653678978    8.46178635946582    6.36504329844123
C         5.75994666271214    5.75348261933988    8.71034596520604
H         6.52833937837037    4.98354611894114    8.63873443462214
H         6.10310261295238    6.73181393215766    8.38272847100323
C         4.44412969055482    5.37849722995320    8.38887319099332
H         3.76088782353529    6.08246436434999    7.91526687579453
C         4.01360912461819    4.08060559894621    8.74252269055883
H         4.76641352443525    3.29214332792991    8.77651112060686
C         2.68546893293217    3.59695397586260    8.48182378026631
H         1.97451771163472    4.33507779086521    8.08068725664591
C         1.07428594140565    1.82023122410134    8.53248156163721
C         1.25153072948664    0.62214247555357    7.58853658786341
H         1.54854664990262    0.96555525266593    6.59980176874576
H         0.32236806723122    0.06397110349811    7.50350280752898
H         2.02848996949569   -0.03391222014546    7.97179347381071
C         0.62947978862681    1.31602856922333    9.91449428049948
H         1.38267669366258    0.64595295494065   10.32063810834910
H        -0.31675881901047    0.78586000124665    9.83932111715053
H         0.50976307642429    2.15356145634201   10.59924816730675
C         0.00019866367429    2.75931709710507    7.96466521181960
H        -0.17534156792488    3.60189700837416    8.63199835147903
H        -0.93373192633219    2.21359803119729    7.85546510936320
H         0.29227570794819    3.13675756891009    6.98597717372006
C         6.28969242163894    3.57284150409867   13.03429176986788
H         7.10473147490843    4.28592723831476   13.13993810441279
H         6.64114525084012    2.57446768148627   13.29512698794932
H         5.47731395855610    3.85609869448107   13.70155642848273
C         7.13699070175761    2.85538279220625   10.47597189447700
H         6.90100262143968    2.59683125650050    9.44505773350033
H         7.44402754497928    1.95501039019763   11.00755607980644
H         7.95335743126397    3.57461897551562   10.48770803655341
C         4.58714036424018    2.09578862432078   11.39117821627591
H         3.90721919333026    2.20869346325914   12.23358854426847
H         5.19596837059401    1.20437620484210   11.54208950989718
H         3.99412419384128    1.99360100744838   10.48183256723949
C         4.91474333856657    7.89359357457018   13.18119345247812
C         4.85823901410597    7.12428907077832   14.34371483104017
H         5.29207880299886    6.13246304382003   14.33792719156019
C         4.26068154955050    7.62031303526845   15.48656885218134
H         4.23172475374940    7.01992347714070   16.38477131642246
C         3.69172691832444    8.88446010150704   15.47711781291559
H         3.22175623084053    9.27229078001454   16.36887936062598
C         3.71881891560610    9.64316588652451   14.31946284431707
H         3.26516234186441   10.62350946427109   14.30552706789329
C         4.32247013333461    9.15171440834728   13.17455807888622
H         4.33475978565390    9.74893335139535   12.27359906917598
C         6.01689056208697    8.68180907953135   10.74152249580083
C         5.25921463508594    9.03669234568162    9.63136092109300
H         4.42933044277434    8.41829467931764    9.31891823594600
C         5.54733314310600   10.20035592496607    8.93896237745675
H         4.95730741559947   10.46755346491238    8.07523897200519
C         6.58471291839681   11.02040014704107    9.34657437626117
H         6.80905346493380   11.92564466908678    8.80114704444126
C         7.33188692097813   10.67924413042005   10.46243313500281
H         8.13675429788644   11.32021402968531   10.79278015717974
C         7.05093235077588    9.51814527350044   11.15705707480132
H         7.63651795804414    9.26199607822788   12.02853471554552
C         7.34639074142544    6.78348283868873   12.23560570701574
C         7.87037693115292    7.07120595909935   13.49117759310713
H         7.25835922729841    7.54205255637981   14.24653578925179
C         9.18969625017758    6.76478340204290   13.78168527632187
H         9.58440672249784    6.98798609751570   14.76260340072493
C        10.00418114101544    6.18544203465183   12.82427744037904
H        11.03206217661526    5.94976468738155   13.05747229356793
C         9.49641642302450    5.91943813118921   11.56242220831152
H        10.13281782687396    5.48337232661430   10.80527809465262
C         8.17800828671739    6.21529479854880   11.27405292430397
H         7.76715040386546    6.01865387754189   10.29358454820895

