91
CSD_code = VOXDAP | q = 0 | S = 0 | Stoichiometry = C28H58N2P2Ru | MND = 8
Ru        0.44933046253382    1.16209941922722    3.36209007456568
P         1.84982517688845    2.11152306766034    1.74021791461031
P        -0.36426826301529    3.16041167498098    4.30311562051384
N        -2.08663163600138   -0.90800891174138    6.02351070179834
N         1.88247288173704   -2.53143093984928    1.87036132862972
C         2.13136392233057    1.02025259703731    4.83914228474601
H         3.16482062130724    0.84942578259874    4.55586843581820
H         2.02576951369143    1.77543707973330    5.61803124124611
C         1.28503732523594   -0.09648995793064    4.91831521719014
H         1.63254647338374   -1.07562171752676    4.59135715068628
C        -0.03925606934623    0.07352948361458    5.37746155060718
H        -0.23949927434938    0.88981306092163    6.06921771129948
C        -0.93611125342621   -1.04414817619512    5.50568730769123
H        -0.55110838646549   -2.00375824950776    5.12702739015332
C        -3.03822844066558   -1.97867121278117    6.18168236501322
C        -2.66647027820985   -3.32488107941094    5.54134036995380
H        -2.50903966699623   -3.21346549626927    4.46910509382139
H        -3.47765348655459   -4.03255306068132    5.69442895944857
H        -1.76515189794142   -3.73780914824950    5.99127862420268
C        -3.22778798559026   -2.17119160753829    7.69388285487277
H        -2.30694836293996   -2.53793136550470    8.14321978857732
H        -4.02444292497013   -2.88497317122659    7.88984010514488
H        -3.47937851092605   -1.21947921775643    8.15434151714784
C        -4.35273760274810   -1.47256552882798    5.56770189671338
H        -4.61444492184048   -0.51372259481875    6.00626174843083
H        -5.15697112231404   -2.18122136379253    5.75057818598065
H        -4.23976282010432   -1.33891173208454    4.49352918820467
C        -1.31670433355404    1.04116922226802    1.98148355272951
H        -2.32054262072731    1.33585935300301    2.27153432848160
H        -1.04385516830577    1.38464635813955    0.98565205294592
C        -0.89230207067125   -0.23485222169074    2.37900673189539
H        -1.51547053274055   -0.83264692359249    3.04317423071361
C         0.36815365449478   -0.72168190613599    1.96994244523717
H         0.77714144425065   -0.36297531443229    1.02636633287394
C         0.81472261774578   -2.03635231319465    2.34533733368192
H         0.16838670996886   -2.56669975925750    3.06185515149695
C         2.37538410142686   -3.84659464654431    2.19812198320215
C         1.77177784014453   -4.50345297542357    3.44930380805909
H         1.88006561721644   -3.85120657073257    4.31516018048728
H         2.29354935440794   -5.43484838356916    3.65524133844233
H         0.71684725215180   -4.73124363910077    3.30744504371463
C         3.89157581371862   -3.69398397816450    2.38909180925679
H         4.31759496344664   -3.19627994581689    1.52262319023785
H         4.36223221116542   -4.66670234530780    2.51043804145474
H         4.10066830723478   -3.08966384129012    3.26932472163477
C         2.10671628756229   -4.73854555854767    0.97637121643628
H         1.03508255126161   -4.85015520324375    0.82188647313456
H         2.54659155675692   -5.72246997543242    1.12117841010456
H         2.53618117823535   -4.28306987167699    0.08787011714245
C         1.11162335895745    2.82864580290660    0.18149804119708
H         0.76510441965931    1.96619484496320   -0.39834482893995
H         0.22362183465473    3.38864899485293    0.48787737559275
C         1.97742630316222    3.71316303824459   -0.70691919240326
H         1.40203523905250    4.01644211962874   -1.58115208135265
H         2.86090227982844    3.18663631268160   -1.05780887350629
H         2.28485705965293    4.61424530226388   -0.18272378636294
C         2.83262096831395    3.54256161693506    2.42317111707378
H         2.20024259572282    4.42517457803987    2.28359631581519
H         2.88833265370558    3.35464073018239    3.49800775252332
C         4.23863962297599    3.82063472944358    1.90248167948048
H         4.25541773011715    4.01532970618522    0.83426116871166
H         4.90557487474848    2.98956248458748    2.11467762131349
H         4.63353908107423    4.70118438508062    2.40854281266676
C         3.15507442858677    1.07219258998530    0.92736649713955
H         2.64821749960687    0.45059711178258    0.18414786269017
H         3.83842984868499    1.73965281975796    0.39770265397663
C         3.92218435116402    0.17191244717713    1.88147170194443
H         4.68958039724299   -0.37765381878434    1.33846809456176
H         3.24537313493906   -0.55062653642251    2.33128828687230
H         4.40664890394459    0.75049685459393    2.66491241317672
C         0.75958902227878    4.36668850215961    5.20310081681914
H         1.64512520900511    3.80171859103254    5.50349139056943
H         1.08793948949178    5.08674751338795    4.44828697828142
C         0.23750787887728    5.10805072701906    6.42987464925619
H        -0.62568693502966    5.72637209846071    6.20087722190575
H         1.02383792515378    5.75969566782061    6.81013197179757
H        -0.03326195711927    4.41612928455066    7.22287416043434
C        -1.05662850571014    4.29424255962030    3.00155115692381
H        -0.21210173192615    4.50608110365775    2.33835636002414
H        -1.77220249119236    3.70004813282494    2.42944575813095
C        -1.70323136177090    5.60477694098737    3.43247031964269
H        -2.00451433486456    6.16348343145574    2.54694384080620
H        -1.01078507465712    6.22392004193457    3.99679396974969
H        -2.59301756054158    5.43410866394619    4.03270721377019
C        -1.78444838512255    3.07159349851087    5.49136477858906
H        -1.40456905178958    2.66378867914158    6.43135780135844
H        -2.13306833265178    4.08821360221748    5.68396533308480
C        -2.92870924513554    2.20208544189690    4.99581200297291
H        -3.31771172616611    2.57030163265541    4.04886315578499
H        -3.73936665053888    2.21077941684486    5.72271472388719
H        -2.59601297425386    1.17303116145514    4.87819064368330

