70
CSD_code = VOXFAR | q = 0 | S = 0 | Stoichiometry = C31H26Cl2N6NiO2S2 | MND = 4
Ni       16.87782095558672    1.29757787385348   17.40871096501277
S        15.11786090922972    0.86662731293897   18.62658922184896
S        18.09408095432130   -0.38989629773122   18.08029444277549
Cl        8.51305965189091    5.61634631048157   16.32242067068711
Cl       26.02858294359099   -0.07119459450386   15.15805518397307
O        17.42112467615759    4.13011343026062   13.25749055655666
O        18.10077565204028    5.95736238752860   15.40897650045485
N        12.90712644132992    2.20078323361669   18.24804695470671
H        12.60342470579311    1.39473810797994   18.77945623373039
N        19.30024153974545    0.79344326657922   16.00293613797913
N        20.58656441830343   -0.61781253103429   17.34128814491064
H        20.51163067106761   -1.27115747493200   18.11066891584266
N        16.16323095582048    3.12856610487902   17.31576041980416
N        14.82905454057136    3.26706836333949   17.47364271762356
N        18.06642416141526    1.32048520605938   15.85782866329738
C        11.90616618289889    3.04082764612113   17.78795793720828
C        16.27973707733547    3.50232268984495   13.63296163920113
C        21.84865527076140   -0.46557256752013   16.79017183549998
C        18.91410276202793    5.07577096938854   16.04799513415032
C        19.02137240760889    3.30447706593176   17.70316572322292
H        18.50904696401888    2.68307563079636   18.44731284458008
C        14.24408545887180    2.25130222751046   18.03220595148628
C        14.98850431335329    3.91582967905379   13.33553747449877
H        14.81585806691314    4.78068483318405   12.71376684101257
C        19.42466783096765    0.00402327910503   17.02748376220969
C        10.58867914655356    2.75163310885292   18.14905171061969
H        10.38142485597923    1.90176075148912   18.78324554031927
C         9.81534969772614    4.62686300702525   16.88682919773752
C        13.89955086425076    3.21640627182913   13.83353411821519
H        12.90234005378113    3.55681621076085   13.59907097754635
C        14.07499790641443    2.09102372230640   14.61983961610556
H        13.21790346360710    1.55552213048382   14.99774088431534
C        18.26398690176181    4.19443053293985   16.93823545059115
C        12.15958292740107    4.13906087629037   16.96737196625389
H        13.17682018182199    4.35815158552280   16.69014392677704
C        20.28966765401960    4.97784804033836   15.89168729811902
H        20.81302606839499    5.60790759882490   15.18938675914548
C        17.79969740136218    1.89271897961974   14.73535566007197
H        18.58675804001006    2.01070394822477   13.99594538333640
C         9.54687844027815    3.53970355948064   17.70365144553870
H         8.53119957368384    3.31233366897293   17.98611145708850
C        16.46667787698167    2.35143287759383   14.42586526884881
C        24.42378507246039   -0.22301551241334   15.78641851288422
C        17.38384492028047    5.41709394834389   12.67456846942951
H        16.53998469270909    5.99756932064851   13.06206289144173
H        17.28275106428089    5.32182811510749   11.58504151829128
C        20.39399798457347    3.24148020698505   17.56085392297678
H        20.97581033352486    2.55276460760994   18.15352333229545
C        21.01738765655756    4.06417314967578   16.63886503282972
H        22.08650988736551    4.00388523224388   16.50197282585677
C        11.11743047177158    4.92617355407480   16.51879864806230
H        11.31519926698502    5.77435957709571   15.88250028958412
C        23.40867941172090    0.57545857040156   15.28382013755963
H        23.62197069761688    1.28868991424609   14.50341010861876
C        18.69711611086373    6.11724030263121   13.03484801182262
H        18.94070032371982    6.86786538490941   12.28336437111806
H        19.48415859343945    5.36214665541570   13.04896107111265
C        22.88282537799303   -1.26045174625487   17.28858539376638
H        22.67844533939089   -1.97558657473676   18.07225869977377
C        18.59907487710177    6.80782006062611   14.40070904807908
H        19.56399248851471    7.24369268524672   14.68337062397447
H        17.86298608177108    7.61652287553888   14.34405732418973
C        24.16439951964241   -1.14310949694547   16.79010334836557
H        24.95928579449906   -1.76090870726673   17.17715859793391
C        22.12606132229888    0.45600954821190   15.78154902110577
H        21.32587685892333    1.06837858662467   15.40129536961097
C        16.82596664786807    4.20046318605450   17.04352410616062
H        16.28640225128910    5.12953378811596   16.88344616769103
C        15.35510737009307    1.65795892256378   14.90881386156592
H        15.51590901711182    0.74225482195880   15.48812776099880

