39
CSD_code = VOXKIC | q = 1 | S = 0 | Stoichiometry = C8H24Cl2IrN2P2(1+) | MND = 6
Ir        1.74975677900740    2.78537002964535   -0.03676580890462
Cl       -0.39725499422984    1.82031334710308   -0.27510011248831
Cl        3.88140088388870    3.74514900535437    0.20275214147793
P         2.28594606536588    2.05159147959958   -2.18993045683732
P         1.15571143614957    3.49302268644947    2.11070400777614
N         2.50374154551127    0.88419731614141    0.52119233279290
N         0.93222846968518    4.65886669766398   -0.60044587128376
C         2.76822134030940    0.30382853289963   -1.83584142718666
C         3.72603020489158    2.73712319866339   -3.06728736431936
C         1.02953981925423    1.88571203228985   -3.49596541529840
C         0.22849162779700    5.03874732788166    1.70687133561791
C        -0.01147086276465    2.55881193249109    3.14836141549088
C         2.43060703064567    4.04082162316871    3.28887583597600
C         3.42156073877496    0.27650850908573   -0.45976905417680
C         0.88548235285890    5.66023576095810    0.48082126955984
H         1.85848528836383   -0.30247776970611   -1.83453039007874
H         3.44542614980004   -0.07686313267295   -2.60248767820513
H         3.49615133138392    3.74275679319880   -3.41448140553413
H         3.97403790169823    2.10902709775044   -3.92180941440547
H         4.57284541704798    2.79737724089513   -2.38797790202890
H         0.80776124373417    2.86163037411748   -3.92453140481449
H         1.40025604948237    1.22581638918593   -4.27923492762182
H         0.11940098507973    1.47257790219663   -3.06733518148339
H        -0.80527227454501    4.76233350006589    1.48290923196241
H         0.23460778090992    5.72971118813847    2.55168142821981
H        -0.41038610333338    3.20802934708572    3.92673144911596
H        -0.82366400294902    2.18668354646664    2.52818120658294
H         0.49632481867138    1.71434362445799    3.61134966461304
H         2.97513743434507    3.17650957662484    3.66480295363439
H         1.96525939800615    4.56405139516967    4.12300486419566
H         3.13797451591569    4.69423086145556    2.78405151955400
H         4.33958915504998    0.87067429963454   -0.47015586582219
H         3.67032422556243   -0.74961076588707   -0.16764898050600
H         1.91460402052319    5.94760277204017    0.71389318588796
H         0.33718436969861    6.55103817378690    0.15519629995350
H         1.67468207504858    0.28884503677935    0.61617398309012
H         2.96791852984841    0.91486778265463    1.43042074346619
H        -0.02448791516144    4.44937729251189   -0.90289376758225
H         1.42794716867434    5.05996799465447   -1.39828244039027

