55
CSD_code = VOXNIH | q = 0 | S = 0 | Stoichiometry = C26H22N4O2Zn | MND = 4
Zn       -3.09337130946889    0.85716523997842    8.32674806665405
O        -4.39956182740387   -0.37938452384019    7.51565929088323
N        -4.48032028542334    1.22715888122700    9.69852246065610
C        -5.58924887022110   -0.66002883962498    7.84589154793419
N        -2.60760662366278    2.37416965534081    9.90118221320019
C        -6.33274199262600   -1.57502259335772    7.03256196644314
H        -5.81771054108686   -1.98180465735678    6.17490213427496
C        -7.61781474059244   -1.92751874751906    7.31281213706092
H        -8.14033263517275   -2.62350599585178    6.67113065344987
C        -8.28285117669830   -1.39807877433516    8.43357078242894
H        -9.30141172526107   -1.68807574278438    8.64211898979269
C        -7.62393344270858   -0.52351464299719    9.24511103647502
H        -8.12063801450236   -0.10844092305223   10.11261402244537
C        -6.28949463581050   -0.12414580230241    8.99444910850351
C        -5.68739685523702    0.78526418846411    9.88053256279900
H        -6.28575863381730    1.12487175515653   10.73377161348037
C        -3.78110698152663    2.09684681816266   10.47907002178969
C        -4.13931124241473    2.64980337864781   11.71228166214835
H        -5.08660722617248    2.41773633789105   12.17224478170820
C        -3.23174589473892    3.48645412083580   12.33235074430858
H        -3.46917296961593    3.92744101124170   13.28982058827376
C        -2.01183531037357    3.75106787866818   11.72686344863321
H        -1.28843187111959    4.39334306165259   12.20404765541723
C        -1.73093620836467    3.16608586272895   10.49427869004076
C        -0.43847634151189    3.38789580980390    9.77768596800261
H         0.24403317721689    3.99137078432107   10.36947484262332
H        -0.62722485635435    3.88325765859781    8.82667061125028
H         0.01960467908497    2.42521588469986    9.55853877120153
O        -1.78716111142890   -0.37934131147859    9.13786252272252
N        -1.70642777821501    1.22715336588688    6.95496389521410
C        -0.59748228758285   -0.66000535999617    8.80761229365133
N        -3.57915035018004    2.37414908573509    6.75230510573352
C         0.14599554368809   -1.57503441044114    9.62091591612620
H        -0.36903457162170   -1.98181242383587   10.47857724616915
C         1.43105921514953   -1.92755177556742    9.34064958927308
H         1.95357995246173   -2.62353236108255    9.98233414920850
C         2.09609866891414   -1.39810101155794    8.21989583881548
H         3.11465417111397   -1.68810638498412    8.01134010102219
C         1.43718286403852   -0.52352816542874    7.40836257969282
H         1.93387925719829   -0.10847174769360    6.54084755955912
C         0.10275112502211   -0.12414359508529    7.65903848192347
C        -0.49935627648484    0.78525034326822    6.77294492966228
H         0.09900504304851    1.12485861652147    5.91970485816695
C        -2.40564404705667    2.09684393876249    6.17442159436988
C        -2.04743822432512    2.64981827550379    4.94121847869340
H        -1.10013851961942    2.41776373696457    4.48125619168767
C        -2.95500915153555    3.48646572353514    4.32115329625308
H        -2.71758282023155    3.92746135312747    3.36368643149986
C        -4.17492565727006    3.75106060107504    4.92663521373131
H        -4.89833187382661    4.39333492786095    4.44945358927170
C        -4.45582542586740    3.16606402066273    6.15921294965659
C        -5.74828726867562    3.38785937697290    6.87580670778718
H        -6.43077138921221    3.99140039431001    6.28405605890757
H        -5.55953388499722    3.88314067756065    7.82686326046940
H        -6.20640084692181    2.42517702500787    7.09487478885177

