49
CSD_code = VOXRUX | q = 0 | S = 0 | Stoichiometry = C20H20FeN4O3S | MND = 6
Fe        2.88249785600241   15.87241240224074    3.18755378827417
S         2.67464703541348   13.88455421202059    2.03601826308697
O         0.20217798268777   16.79158838311104    2.63315199545195
O         1.90679304175043   15.09993761018302    5.78997093119809
O         2.87254606279633   18.41530170974680    4.61877957566032
N         4.79316422032015   15.47808233089735    3.72393909023124
N         5.51688452050036   16.61332796483243    3.71291991558882
N         4.55343366173376   17.69438347437126    1.87875916842287
N         3.63385893211281   16.77879508363102    1.52294546644486
C         1.25956944562246   16.40348924484598    2.82125732467946
C         2.28965318043712   15.34416446356387    4.74101712033547
C         3.33876213856232   17.56409608062567    3.91754611739856
C         4.79897711081548   17.77726770220657    3.28782242792514
H         5.30363635956015   18.70421645371539    3.56880324156124
C         5.12639483154571   13.11919879960360    4.36636064513278
H         4.64452905853707   13.02374772634867    5.33913934289879
H         5.96668397716765   12.43199258860444    4.32564215525498
H         4.39606239428547   12.86117542014891    3.60290576530055
C         5.58715295043519   14.51350064771037    4.17045489890094
C         6.85334676317356   15.05500230267652    4.44248699822382
H         7.70810209756982   14.52881274571934    4.81507801831934
C         6.77843032944237   16.39930350421350    4.14193532637160
C         7.79625776470236   17.47522411095956    4.23812861645982
H         7.99579677261277   17.91253365735664    3.25955892164778
H         8.72273199891291   17.06437998378053    4.62823989999244
H         7.45924948930764   18.26814448887529    4.90556950843211
C         6.05660137419187   19.42706834647471    0.90365871912527
H         5.70479435039464   20.24032085677225    1.53760996606554
H         6.26300008018793   19.82354128469343   -0.08573216598429
H         6.98599816838509   19.04253202313725    1.32366073742259
C         5.03445709803693   18.35548316038243    0.80560533693977
C         4.37977444736093   17.82754444319335   -0.28844217254484
H         4.50709400794469   18.11643209463934   -1.31152261849282
C         3.50861080551832   16.84362483295137    0.20377134855810
C         2.56973622707833   15.98947375902170   -0.56053000617012
H         2.89378610653792   14.95118807519038   -0.51473310595016
H         2.52463462933443   16.31154268044471   -1.59691472992912
H         1.57583448010415   16.03611887544345   -0.11906075015032
C         1.00112578114476   13.38666133330806    1.87100594074511
C         0.61074454926795   12.74639377266588    0.69659295819473
H         1.34267339242305   12.58739867558152   -0.08117811781041
C        -0.69335407102996   12.32315419087278    0.53414479042657
H        -0.98509002290726   11.83322392737050   -0.38408940034416
C        -1.62651607231419   12.52891245162214    1.53744964832848
H        -2.64800194154685   12.20350623145890    1.40667436060847
C        -1.23879805756268   13.15226138169881    2.71220051426603
H        -1.95630113771627   13.31012016314778    3.50477108656459
C         0.06548538294495   13.57362458502359    2.88293043275131
H         0.36837044621292   14.05213976291827    3.80454270418979

