38
CSD_code = VOXRIL | q = 0 | S = 0 | Stoichiometry = C14H15BrFeN4O3 | MND = 6
Br       10.88933895280217   17.68343067839720    7.21239371534354
Fe        9.80281834017709   15.66167381840574    7.05776175166261
O         7.97569795810463   15.97296286324632    9.26844782963546
O         7.48998440133356   16.52049241581430    5.56245626097540
O         8.17030229149294   13.27565640879402    6.92131872327573
N        11.28899540117222   14.61105960667972    8.17617016822920
N        11.38599955210445   13.34952915243819    7.71102661357612
N        11.08963229726941   13.68910889672292    5.40713238753183
N        10.91940798729978   15.02534647950639    5.35448262037345
C         8.74071013417835   15.87446072708436    8.42679415882307
C         8.43845943952504   16.21232024399306    6.11815056036462
C        12.26140411668881   15.96363226741026    9.99465296127403
H        12.72154381215398   16.73703134994360    9.38099229700125
H        12.87570805557059   15.78567161018258   10.87243869270713
H        11.28687894150673   16.33844497043358   10.30237027070819
C        12.10578931033847   14.71349766034781    9.21571676898436
C        12.74022590781470   13.47720675154640    9.41601512808361
H        13.45248773036938   13.24041666092997   10.17927311441917
C        12.26070195576403   12.62593586402582    8.44171708428738
C        12.55895296546772   11.19806745784449    8.17052560299465
H        11.65279223578565   10.59537199445742    8.23129406332526
H        13.26939195813278   10.83091529106085    8.90530281234395
H        12.99030712846924   11.06963836157989    7.17761035835565
C        10.55789560385816   13.05063396758786    6.57749378503224
H        10.41886620719250   11.97715734382189    6.43741939878245
C        12.05210486818910   11.80397247990346    4.08898558319733
H        12.72949567734085   11.42960249852462    4.85690580233104
H        12.52994844291214   11.68525837764189    3.12098186636113
H        11.14558107173081   11.19917289771295    4.10636068552590
C        11.73532194847400   13.23630291010154    4.31127951897549
C        11.98490057422251   14.34545928536834    3.52943220305603
H        12.47929468700574   14.36165497003709    2.58008145900230
C        11.45691627846948   15.44870834495275    4.21874005726917
C        11.45366555632144   16.87253588769600    3.81079699640192
H        10.45267175109576   17.28888215099581    3.90668199579414
H        11.79169474766489   16.97024107182217    2.78328927014246
H        12.10477057328263   17.45392715847791    4.46250029012052
C         9.20994113871808   13.86501912451106    6.87190714373229

