26
CSD_code = VOXYOW | q = 0 | S = 0 | Stoichiometry = C10H7F3FeO5 | MND = 7
Fe        0.26681428682656    2.40502778740404    2.86928181500320
F         3.02384358402263   -0.75548975417103    4.11046016157580
F         1.00901076500985   -0.38206438017073    4.76339057710102
F         1.37527301169213   -1.23780139463033    2.82306338789456
O         3.05226957831106    2.79475305490222    0.08522590579503
O         2.01948854322308    0.55696845203648    0.73835286611846
O        -1.77098213241862    0.88890482409751    4.28224801672013
O        -0.60455803598027    1.71761113758809    0.16206265020488
O        -1.57684500016726    4.64309785266094    2.97678917778801
C         1.88680506137165    1.07400885630468    3.10561427026962
C         2.02402274829465    2.11405940885177    4.09799583303289
C         2.02449872012310    3.41593181721614    3.59364475223949
C         1.98409988207297    3.46893398058426    2.16594758543718
C         3.01713664021506    2.58197408813088    1.46114424374875
C         2.73471206900567    1.10451783462262    1.82650822225563
C         1.81704356437914   -0.30832837276531    3.69511659265275
C        -0.93967877609696    1.47714434483879    3.76933190020760
C        -0.19239299736138    1.93540769012714    1.19983931661455
C        -0.83085045856158    3.77827714690064    2.95549421265687
H         2.07803187616375    1.88864271488975    5.15638184481216
H         2.04464285391231    4.28679538358266    4.23674517052010
H         1.92765321189154    4.45038972232375    1.70373161192672
H         4.01194447393884    2.86847993906036    1.83168393115537
H         3.67336470537261    0.54779769042385    1.97413367074736
H         2.39995248139612    2.20719636635789   -0.32099978016591
H         1.83739934336344   -0.37593619116719    0.89421206368770

