82
CSD_code = VOYFOG | q = 0 | S = 0 | Stoichiometry = C37H38CoN3O3 | MND = 6
Co        5.36303215339231   18.04386078734977    7.39544593819608
N         7.24404565625724   17.17888639914795    7.34348892804371
N         3.80537388435820   19.06199567837203    7.39632763929956
N         4.61976608063080   17.45622231489349    5.61879316234165
O         4.56384473123337   16.59513199503779    8.28590263354239
O         5.74690628590917   18.82814037083020    9.05381286723251
O         6.15598525898926   19.47854294585173    6.44210717001937
C         7.24920526881481   15.86724805314332    8.03375276558739
H         8.22509481692749   15.38315945974062    7.88814117371690
H         7.11944094857422   16.07024917171509    9.10236589233022
C         8.23574654647766   18.05492356958728    8.01766823028524
H         9.24220801643903   17.64480019578049    7.85271618073269
H         8.17980428463723   19.04085554754554    7.54788220311347
C         7.71784007242317   16.97686211441838    5.96878704249934
H         7.22692175280390   16.08810223258986    5.56113939624883
H         8.79440206738461   16.73983737731936    6.00334655987759
C         6.14167709662380   14.96115884249353    7.58843861911161
C         4.81793449424476   15.41199294208150    7.78593523361992
C         3.76029202480411   14.54414208845261    7.42308964450218
C         4.04533348504392   13.30501729085992    6.88565151494061
H         3.22648870806796   12.65296865562150    6.61119325770080
C         5.35056085088567   12.87129404679530    6.67179070068729
C         6.38903989745808   13.71627989862517    7.03380303578770
H         7.41331607267062   13.39537344587929    6.89070857260977
C         2.35195757185562   15.00539458729363    7.64226372531813
H         1.65297847083333   14.43789032150193    7.03179608492340
H         2.27462115754836   16.06589596213724    7.40462590081121
H         2.07678890814133   14.88666257644234    8.69013415234928
C         5.61855043065973   11.51644304755868    6.08533686843803
H         5.50021236292360   10.74507151194605    6.84721288583982
H         6.63251409010555   11.45436338991960    5.69655765480419
H         4.91913690721958   11.29819589033345    5.27998905385824
C         7.99335172072592   18.18015738478027    9.49013717217779
C         6.70012298387547   18.54309757201850    9.90165369241851
C         6.45073482649815   18.63403620409341   11.29301083330453
C         7.47633842295061   18.40202167901568   12.18580738140951
H         7.27361576710627   18.48429146251764   13.24550277200518
C         8.75833917786566   18.04992722149064   11.77384675138859
C         8.99394634035420   17.93088773927759   10.41457766504323
H         9.97821289891998   17.64834673870707   10.06357655427419
C         5.07198822539502   18.99202273193817   11.75862834154685
H         4.82045256349865   20.00630596371610   11.44822641239991
H         4.99938104675430   18.92781508361231   12.84177015209434
H         4.35013293099541   18.31000105769926   11.30988761562171
C         9.83655418808657   17.78815959618303   12.78389971368632
H         9.92837242887546   18.62684075626301   13.47277114740388
H        10.79562525908040   17.63366389656581   12.29551137270826
H         9.60203563230633   16.89987117375525   13.37114861344960
C         7.53542812599895   18.13090785944897    5.00912355706016
C         6.78645565846657   19.28438450457786    5.30880298519356
C         6.70525955714241   20.29299450915054    4.31255558197685
C         7.31628161972491   20.11763302244937    3.09075295623284
H         7.23173552556461   20.89914451892219    2.34735622773869
C         8.03031571912597   18.96349305221186    2.78428058956686
C         8.13197807219333   17.99235201880150    3.76205501545902
H         8.69115280357755   17.08810475686628    3.55653497886332
C         5.95566681815490   21.55563669670909    4.62152642098731
H         5.42573834029211   21.91950753333981    3.74287930257274
H         6.64779377542583   22.33246414080056    4.94757456678381
H         5.25211300964222   21.37726307797710    5.43137340443780
C         8.67677258406927   18.79831950213510    1.44069213853745
H         9.05008722574970   17.78516871616942    1.31233688595958
H         9.51408990360137   19.48835156316396    1.33392845934784
H         7.96637312043142   19.01311813229734    0.64339282638585
C         3.27212575095191   19.69347864494426    8.43397865311486
H         3.64031934957608   19.38775180661828    9.40038756401238
C         2.32852318599654   20.69350716458371    8.29225544329323
H         1.91896469411888   21.17594963953940    9.16502274271797
C         1.93051680871896   21.06939337379718    7.01420823699581
H         1.21343218222016   21.86276036069813    6.86818311321704
C         2.46351782187289   20.39745715471820    5.93296448559174
H         2.16502725800111   20.65142795733254    4.92879240552732
C         3.39319712939483   19.38007999271752    6.15243240289962
C         3.91026199974747   18.49545627190516    5.12505083767685
C         3.65560817485116   18.62572207879029    3.76029888485045
H         3.15180588867037   19.50152148898646    3.38626125063618
C         4.06462315733387   17.62976353120965    2.89786217039650
H         3.90558887068679   17.72020531978461    1.83459637505761
C         4.64631966324683   16.48970884428792    3.43786373091983
H         4.91370981967720   15.64989494222000    2.81784300569497
C         4.90096083251527   16.45235436827023    4.79561872559926
H         5.32573078563184   15.56571448167021    5.24275319539242

