105
CSD_code = VOYGIB | q = 0 | S = 0 | Stoichiometry = C55H37BBr2FeN6O3 | MND = 5
Br        4.07435624449824   14.11763787624698   10.42378939876113
Br        4.94695761130529   17.23152482971997   11.35870775678207
Fe        0.95108670928719   13.43480799691037    7.12250002608722
O         2.13252219798996   14.16777665997092    8.34750944789719
O         3.34387365566904   19.21342500001451    9.80990000001533
O         0.08407015570971   15.12617817325359    6.86480491229564
N        -0.78968029042315   11.36535235079902    6.16257309868579
N        -0.30095610120423   12.57045038293694    5.85200502991689
N        -0.45697274904790   11.41034177120437    8.58967548034635
N        -0.16074657129361   12.71683628490753    8.60766137883356
N         1.33742294949295   10.58568393954172    7.13817108632276
N         1.96141619238205   11.76271648347508    7.09161365228624
C        -1.76540469329931   11.02060782861194    5.29965584077989
C        -1.90501203328098   12.06112280142552    4.39320792929205
H        -2.58783289242213   12.11671153172739    3.57033997925248
C        -0.96536327909391   13.02193010408357    4.78361329767431
C        -1.04101564415536   11.04838158349341    9.74763736287532
C        -1.11425179825377   12.17965208003980   10.54595147372610
H        -1.51184947127681   12.25608074228718   11.53714753331370
C        -0.53949326675941   13.20508239256561    9.78915508054641
C         2.23967695798148    9.58158432943714    7.14984176664840
C         3.50066234845771   10.15736132957158    7.11647947437156
H         4.44250807457491    9.64928773068751    7.08796860578500
C         3.27935702241697   11.53983055925087    7.06686043585622
C        -2.49594593187084    9.75722828043752    5.37106560788670
C        -2.61441486605716    8.96095692458706    4.23534534689369
H        -2.17023724422082    9.29047645759276    3.30732523722161
C        -3.27740525422062    7.74903457662840    4.29903727678243
H        -3.35782093959133    7.13424605243515    3.41458791866717
C        -3.83075488188901    7.32113220619095    5.49431378959803
H        -4.34056116152618    6.37056017663807    5.54431429864704
C        -3.73544615756505    8.11858877432932    6.62303485703356
H        -4.17191476955110    7.79460931867293    7.55610514347701
C        -3.07816191894282    9.33272245680059    6.56314536106702
H        -3.01904906337105    9.95921982496479    7.43944725482182
C        -0.67826357047973   14.30880456252501    4.16338157360664
C        -1.70857939601356   15.12105215738810    3.69956303600216
H        -2.73231161842462   14.79300645231291    3.80271172571386
C        -1.42459428085888   16.35202099438372    3.13616260488246
H        -2.23042294943047   16.98139672201188    2.78721819288471
C        -0.11342841761759   16.78406391700709    3.02616205940071
H         0.10485378798784   17.74955269832236    2.59485246850918
C         0.91916714243240   15.97275986232808    3.46924555097360
H         1.94343192357587   16.30314852946040    3.37420163224937
C         0.63826477362691   14.74129928098283    4.02739720543978
H         1.43674023405551   14.08460468399393    4.35024411352036
C        -1.50208063154968    9.69079988304986   10.03115297723198
C        -2.80809443613242    9.48296803086422   10.46635485443931
H        -3.46374313348692   10.33087105866515   10.60172404100661
C        -3.26788162137490    8.20083765237563   10.70511048499268
H        -4.28499470058313    8.04839566048749   11.03557938540390
C        -2.42929229382883    7.11495356729960   10.51606776768018
H        -2.79248467180058    6.11386963723186   10.69511530665471
C        -1.12182014957985    7.31660999319543   10.10539975339937
H        -0.45961783510141    6.47515948826876    9.96576079329729
C        -0.65674657405333    8.59632880431440    9.86900969084889
H         0.36620622047140    8.75242895697112    9.56452030304982
C        -0.37243007442897   14.60097299895048   10.20969500914723
C         0.50588305640616   14.90550726533796   11.24526604167355
H         1.07535369148714   14.11267322873219   11.70886807616784
C         0.65882038841073   16.21435684469406   11.66579858805474
H         1.35171805841130   16.44582906338898   12.46193510617710
C        -0.07692792276348   17.22565481689717   11.07015227638071
H         0.04530712110451   18.24736519636331   11.39717116621278
C        -0.97074594362464   16.92306075105677   10.05699681794664
H        -1.55024353453502   17.70960800938739    9.59687502782990
C        -1.11848601642038   15.61668655695705    9.62417270760992
H        -1.81074479493100   15.37574352415606    8.83175814348022
C         1.87707561305278    8.16816124260280    7.18931432299116
C         2.51491230248189    7.31925612520655    8.09079955415822
H         3.27542229097945    7.71714518414191    8.74653657997449
C         2.16261177700835    5.98421355187829    8.16182163119429
H         2.65780593939537    5.33569158740770    8.86958586898216
C         1.17314071636706    5.48109475345065    7.33344843566525
H         0.89277748269020    4.44008349371964    7.39580860427242
C         0.54957948206116    6.31482923390850    6.41967574935345
H        -0.21546962429036    5.92556539421343    5.76433175269105
C         0.90175160683518    7.64886391026205    6.34080938794761
H         0.42667480713861    8.29103743881915    5.61526764803339
C         4.25212293923725   12.62018447245616    6.98477689036641
C         5.48475203586498   12.52106334002628    7.62583558640910
H         5.72400570868814   11.62878381729692    8.18319562054920
C         6.37791382242936   13.57621366542020    7.59034042910450
H         7.32130959887854   13.49640927329277    8.10874240930844
C         6.05674126818108   14.74199287347830    6.91518910506442
H         6.74789333970433   15.57143166228175    6.90410792655476
C         4.84136922505542   14.84342651082826    6.25554940786907
H         4.58758237614964   15.74959820918581    5.72347070902643
C         3.95202931772030   13.78693368547097    6.28200487017926
H         3.00179705408426   13.85839779000716    5.75481064353537
C         2.29614887226573   15.38197044381990    8.67706470782804
C         3.29888090126761   15.65354411017000    9.67393106870465
C         3.63983902983260   16.90424249182134   10.05152463352546
C         3.00525214482795   18.08887701686956    9.47739482436191
C         1.93839734908781   17.81453190027992    8.50376187063557
C         1.26669877924953   18.89869829582292    7.96320469488090
H         1.56354466856245   19.89111868142155    8.26580899701021
C         0.23053641347872   18.69973372411908    7.05514755968180
H        -0.28387427091372   19.55231785118155    6.63650131889215
C        -0.14841484532069   17.43181591535687    6.70088569367130
H        -0.95819616485912   17.25778549790408    6.00845400547314
C         0.50166774775051   16.28339535038795    7.22517459898876
C         1.59146137673846   16.49616378532854    8.13223535180345
B        -0.18078681030403   10.58286509753654    7.32932814912358
H        -0.61828524277941    9.49573196192876    7.40974277003939

