137
CSD_code = VOYJIE | q = 0 | S = 0 | Stoichiometry = C62H67Cl2N2O2PRu | MND = 5
Ru       12.36063903457817    9.84482669848174    5.06720617039266
Cl       11.33700009365925   10.59870573476273    3.08735639504552
Cl       13.48110875574758    9.59509247681022    7.10517997849063
P        10.44339997686448   10.68577324027262    6.11862582524491
O        12.79514619506148    3.45693205715535    2.79224045691930
O        14.96775716816549   16.13206553873819    4.01222152402067
N        14.90220866345822    8.43325220872695    4.11094667304730
N        15.12042756713352   10.58134207103525    4.34477299385124
C        14.23578209056794    9.57397519319797    4.30735129803701
C        16.34797956565364    8.62489905947273    3.99964502374983
C        16.50590692077848   10.12410779439507    4.22754435145389
C        14.35242065627745    7.16477385710369    3.76786650316731
C        14.00934875770960    6.92008599753786    2.43486459280854
C        13.47922240711793    5.68405484492481    2.08833652226767
C        13.29998196666606    4.69656935564713    3.04343710348109
C        13.70456078161916    4.93697862411830    4.35381858909072
C        14.24680819610047    6.15091737001074    4.73158647913425
C        14.27928837583816    7.92470350868385    1.33593396042886
C        15.29232467131220    7.33914755390088    0.34437640621465
C        13.00805757184762    8.36167321060604    0.60572578008344
C        14.82510953694092    6.32257629583017    6.11663549963320
C        16.21752571460755    5.67689704512841    6.15017267147816
C        13.97036087302268    5.69989990690926    7.21829393846642
C        12.49889427316240    3.11317997382155    1.46092842254838
C        14.91450063965003   11.99231136216663    4.27351091209836
C        15.23142433612366   12.78973134625681    5.38489739068440
C        15.22908933861828   14.16515868322868    5.24337639693744
C        14.92382990801595   14.76835078266549    4.02818232399944
C        14.59693428951669   13.97127285692553    2.94287885345848
C        14.59244086832239   12.58592344430919    3.04356925958917
C        15.58189955552626   12.20372037087091    6.73198482754429
C        17.02340491238497   12.54829268286262    7.11485382517089
C        14.61104228157008   12.70348989825200    7.80401296204543
C        14.28095953504632   11.77186976110435    1.80786095219958
C        15.53437018249702   11.62184210946494    0.93911816628194
C        13.15609083045093   12.37767572805769    0.96697919399049
C        14.67137401480785   16.80012756220975    2.81066241836537
C        11.59132914588116    8.07692189390873    4.99180653569394
C        11.23207618013864    7.42162180126457    3.78084766438568
C        10.45610586657864    6.31814297607704    4.02752085748042
C        10.27368205593952    6.21920299183703    5.47457801062361
C         9.50774831260452    5.37692519750745    6.25163697175491
C         9.51661478187672    5.54310542174002    7.63558606313287
C        10.28429407057411    6.52950891523258    8.22318690881507
C        11.02675228584858    7.41456091346246    7.44492463871727
C        10.99856649462794    7.28669941247607    6.06787082201185
C         9.88867276313844    5.43569869166118    3.02897817865900
C         9.48382983875417    5.94943119488497    1.79310822549742
C         8.93449744879630    5.12229280001371    0.83354402990076
C         8.78170779399263    3.76689852928365    1.08413427134414
C         9.19563641077914    3.24346595308561    2.29869686733946
C         9.74599250256685    4.06606428745026    3.26291384861054
C         9.82429717049417   10.18128350912848    7.75572243650966
C         8.61791680309176    9.51667023439116    7.93736128414986
C         8.22102501063781    9.14057728655558    9.20864882100578
C         9.02478730734584    9.41559897716826   10.30155498330459
C        10.23461712970247   10.06863897611235   10.12349347307271
C        10.63498715012143   10.44895580258537    8.85785028586663
C         8.91578068538838   10.70208071418036    5.11725734906790
C         8.21189153759120   11.86056983888273    4.81478945082946
C         7.07532717288444   11.79190973508950    4.02734403130790
C         6.63621926572400   10.57545568469808    3.53454442518245
C         7.33870750251874    9.41761683812872    3.82869426433319
C         8.47307297584112    9.48065864272344    4.61418996022209
C        10.72594626131887   12.46124761437909    6.41064139262144
C        11.68428793205225   13.10088723036714    5.63157600581164
C        11.90029164591922   14.46058485130133    5.77133805141756
C        11.17496477477036   15.18298677454073    6.70285487756956
C        10.22648665051945   14.54884337365880    7.49052428587357
C         9.99510457765585   13.19463298268727    7.34324020407911
H        16.69874639488226    8.29724045648331    3.01512371766261
H        16.86284398816078    8.03970737274296    4.76346700041181
H        17.05037258363586   10.34300259604925    5.15015563961616
H        17.00827331652984   10.64125275374615    3.40503658056917
H        13.21063003149688    5.50389185413249    1.06057695958787
H        13.59606148563855    4.13594481458107    5.06550005401791
H        14.72520612474071    8.81925167280547    1.77397933794310
H        14.85471139522381    6.52144176443052   -0.22217631651961
H        16.16939417755017    6.95853708943303    0.86552262607317
H        15.61348377156423    8.10526776653081   -0.35850888621720
H        12.38541650812112    8.97413428075749    1.25400328721613
H        12.43058822879011    7.50463322786326    0.26759420381296
H        13.27261366623154    8.95866878460901   -0.26510649378521
H        14.90833705956909    7.39230439268902    6.32847502623809
H        16.85194573628252    6.03159875106768    5.34080267024835
H        16.12514802466774    4.59773677054937    6.04629520094229
H        16.70622511926683    5.89176379023563    7.09775188849987
H        14.00308065483552    4.61365453767844    7.18153301222010
H        12.93955030912579    6.02354425919387    7.12965579169020
H        14.34535902312612    6.01750959389885    8.18823636473236
H        13.39377508495188    3.15449154199408    0.83051163651568
H        11.72231992542330    3.75771318344944    1.03868657418687
H        12.13111447978308    2.08907844298242    1.49546041250802
H        15.47359912047996   14.80548510406130    6.07497709499042
H        14.35657442641218   14.41908879643242    1.99418033502484
H        15.47598959335417   11.11664482165029    6.69456627908954
H        17.13668728058848   13.61907639299622    7.26628880206697
H        17.72120041005143   12.24334270946953    6.33641506078969
H        17.29199235703082   12.04143612041776    8.03888548892844
H        13.58875568041706   12.45936371867298    7.52375592974293
H        14.68265548209887   13.77970563988487    7.94137375620079
H        14.82836814910564   12.21286270585575    8.74948733139399
H        13.93868376042413   10.78446021185801    2.12620105229712
H        16.33201111658067   11.09899739931078    1.46172050455068
H        15.90860998540936   12.60084487738981    0.64467896737556
H        15.29321087814832   11.06088369289842    0.03907034022038
H        13.48116842594739   13.27094945701546    0.43778579193995
H        12.30125429963967   12.61590836271186    1.59222547408371
H        12.83065816210197   11.64955201760898    0.22867632250580
H        13.65142552525143   16.58886179045933    2.47253667092414
H        15.37923049875140   16.53641134363533    2.01805802525682
H        14.76289120002504   17.86201283433650    3.03372977403769
H        11.51728169416221    7.76222924815180    2.80356754725242
H         8.89587691656237    4.60634098440647    5.80648935436311
H         8.92214829514975    4.88432047727566    8.25216910150580
H        10.30313309997511    6.63006740785565    9.29821741116655
H        11.63099232504284    8.17061934448945    7.91921126232821
H         9.58398739379084    7.00832159019294    1.60624895840933
H         8.61842301985285    5.53415504020648   -0.11443708537396
H         8.34719981699931    3.12192008111128    0.33423866240862
H         9.09308740586260    2.18523597923090    2.49195781588897
H        10.10866994977433    3.64409128840502    4.18691864720347
H         7.98720987551159    9.29415952230213    7.08861898001470
H         7.28020433569072    8.62688881478236    9.34358431904014
H         8.71141508333332    9.11800482499967   11.29169756288652
H        10.86832926357835   10.27766500981085   10.97291730084517
H        11.58700097149048   10.94186930952107    8.71366952077510
H         8.55189645436965   12.81876925206236    5.18124029654858
H         6.53487395803115   12.69769146099180    3.79235074951157
H         5.75287894447056   10.53026375291755    2.91441945771501
H         7.00851901029360    8.46521522945956    3.43948793299307
H         9.03414633344676    8.58284110719761    4.83366278180864
H        12.25888014556352   12.52790630109528    4.90121060662134
H        12.63673493512299   14.95555822280303    5.15936507790341
H        11.34863368355864   16.24303680563306    6.81546966414853
H         9.66082652800953   15.11371589211042    8.21733818903160
H         9.24814910683290   12.70031910634328    7.94898247780245

