44
CSD_code = VOYNUU | q = 0 | S = 0 | Stoichiometry = C21H16AuCl3N2O | MND = 4
Au        0.53450265030359    7.97592775854561    2.39542215090684
Cl        1.86616202209807    6.65154359909886    3.58256274844456
Cl       -0.52428243473692    8.71872226534411    4.29552932249948
Cl        1.32060208573890    7.13025649762949    0.42481404706367
O         5.94189635137230   11.75863172725424    5.17177710505690
N         1.50101315223335   10.22148793325422    2.34924117030735
N        -0.76000554603951    9.13967744234123    1.30583759534157
C         2.55090965169955   10.64600165375352    3.06271624109397
C         3.65071184173974    9.77400989137480    3.23932130969886
H         3.59693350450179    8.78953797583650    2.80304086409990
C         4.73647855421947   10.17687826203655    3.95049059373990
H         5.58291053130933    9.52640642784293    4.10271191221703
C         4.79831008521429   11.47840224399794    4.51195780301524
C         6.08754291058509   13.02175800521012    5.77856608994394
H         6.05249504281076   13.82788429614740    5.03922337784704
H         7.06722747653408   13.00895272892717    6.25275599850153
H         5.31839636579331   13.19102192953575    6.53820231414790
C         3.74007522993270   12.34516336405238    4.35482481842987
H         3.76871008841881   13.34460975054525    4.75876398745167
C         2.59317271118025   11.94475682583722    3.64674001885155
C         1.45827302616979   12.77846675715517    3.46300672357154
C         1.36322786056354   14.10465201701532    4.09520770987706
C         1.48386468775797   14.24159437816285    5.47579983148292
H         1.63716817330700   13.36242194158950    6.08457111350008
C         1.37422319504780   15.48822042024739    6.06424026563920
H         1.46192389594981   15.58423482822521    7.13631849995042
C         1.15087571933092   16.61036823256041    5.28328755016313
H         1.07167112025889   17.58339712320447    5.74430921717826
C         1.02412321657735   16.48055557843049    3.91032647218832
H         0.84714204461137   17.35260584013768    3.29833899618631
C         1.12205025874277   15.23419493108406    3.31892925949963
H         1.03273595423552   15.13235055269650    2.24673706330536
C         0.41979830173232   12.32020184787479    2.68245643676857
H        -0.45993654913546   12.93094767967950    2.55323640747104
C         0.47347499578519   11.02480114932389    2.14259268350541
C        -0.61872900334851   10.47007611999349    1.33853495755859
C        -1.71113746109063    8.57670817679336    0.57224050509791
H        -1.75310312191827    7.49818185069369    0.58383171755311
C        -2.60013999106828    9.32245717442623   -0.17662799496235
H        -3.36168687806397    8.82900212973936   -0.75752096137074
C        -2.47941823344039   10.70532314429881   -0.16123678404908
H        -3.15026639615371   11.32236563563831   -0.73964526799065
C        -1.47976030505934   11.28091610576615    0.59758614981380
H        -1.34383678569075   12.35012580668848    0.60707997946756

