96
CSD_code = VOYQAD | q = 0 | S = 0 | Stoichiometry = C43H40BrN6O5Re | MND = 6
C         3.95857986088612    6.60843879338946    3.06399680939228
C         5.99205529402371    5.78709772996060    4.73670033619761
C         6.59786003840227    7.53221477950100    2.58604169013076
C         8.42852601115998    4.33061906545509    3.14573412892147
H         8.37289147774663    4.76653098625697    4.13552343964794
C         9.41150568135569    3.42019302020493    2.84046288265010
H        10.13311687229267    3.11557911157481    3.57827961945481
C         9.45033553188472    2.86369761297844    1.55522708938932
C         8.50019766118264    3.30727507938086    0.63880670062140
H         8.50487921596459    2.90003464053491   -0.35906589954595
C         7.53279171241021    4.22647446821656    1.02597936917453
C         6.47558150758998    4.70362620084760    0.12456256809484
C         6.39611601473011    4.33592845925644   -1.21605905410896
H         7.13532274705568    3.67763920796826   -1.64204654895561
C         5.36455987351515    4.80497420771617   -2.01411124464954
C         4.43686404874594    5.65682397859462   -1.41743707189274
H         3.61063278723991    6.05579660599074   -1.98389667216680
C         4.57907154013601    5.98696975420591   -0.08662831278833
H         3.86752674231203    6.64775093939720    0.39206212374955
C         5.23665298404412    4.40259580142069   -3.44460453085088
H         4.45697316539265    3.64682617572429   -3.54174762133064
H         6.16684987660918    3.98448776338460   -3.82055218529326
H         4.95157151744159    5.25414491335135   -4.05868549777213
C        10.38801754991228    1.81759124715806    1.21135655173635
H        10.41314097568856    1.46245245798650    0.18378504931678
C        12.16807365329902   -0.56277255690471    1.05597016267857
C        12.89090580163127   -1.69390202741504    1.66361747479507
C        13.41271317648164   -2.82337572910649    1.05440797162391
H        13.33065091283681   -2.95002140890942   -0.01403726799540
C        14.03192108132760   -3.76828527824490    1.85542421619564
H        14.44777949018187   -4.65931333659425    1.40930095857976
C        14.12332024786901   -3.58444898339410    3.22918310712680
H        14.60841942884177   -4.33651093413269    3.83374620177144
C        13.60242840108833   -2.45200182084382    3.83899068470684
H        13.67493988063729   -2.30925453646005    4.90646756982172
C        12.98337612137952   -1.50932667914635    3.04371493459947
C        12.35615922509612   -0.20819507850994    3.43407876498103
C        11.13876012400537   -0.30634279283247    4.31341464446071
C        10.23134954624862   -1.35360057749965    4.20542093642809
H        10.49793278300976   -2.21783415297384    3.61277377287025
C         9.00304665494869   -1.31118495934321    4.82221563674415
H         8.35197141255020   -2.16189872728284    4.71457110695449
C         8.59141699109223   -0.18051049348470    5.55521852345110
C         9.53344705037304    0.84382922684339    5.71074530647938
H         9.32425127536644    1.73175347969180    6.28154215117749
C        10.77479328967748    0.78212021010703    5.10050045418556
C        13.32879194297869    0.79203686394631    3.99746382246550
C        14.66390940585293    0.82442921816217    3.61465050908168
H        15.03416815724701    0.06749633496486    2.93793871878687
C        15.52283176952526    1.80008045007907    4.06498179093539
H        16.54230154814248    1.77530849852823    3.71972439341324
C        15.07948348006895    2.81690165531823    4.93003219690816
C        13.73656924784738    2.77663521097941    5.31819275001048
H        13.31436528793953    3.50000278321185    5.99419348864731
C        12.87845380377792    1.78878846330001    4.85831518619062
C         6.28572531746981   -1.00768577264364    5.72500939668815
H         6.44065004254012   -1.35827578298270    4.70195486269740
H         5.34159600392897   -0.45729377692785    5.73413689344581
C         6.18924013568023   -2.19603428084755    6.68301926582244
H         7.11827620797078   -2.76043983519212    6.68898530231044
H         5.37917934815102   -2.85487485260960    6.38152855776744
H         5.99605850134877   -1.84922966084412    7.69542019102103
C         6.93804746599986    1.04632235822900    6.89213516571513
H         7.75593147506908    1.32991623991180    7.55943282534356
H         6.10242112929620    0.73071122632211    7.52207695331698
C         6.50859393459205    2.23865508559870    6.03783140429734
H         7.31883517006651    2.54986079312525    5.38300823343246
H         6.22833072744791    3.07473523526269    6.67304616251954
H         5.65715227993379    1.97827608172816    5.41434333482022
C        17.34866687022862    3.74185459181810    5.16057540407452
H        17.83543313404071    4.26281594996987    5.99014875070453
H        17.68111803435293    2.70150365976276    5.19300496991569
C        17.77516577118325    4.38987606743615    3.84118057961801
H        17.29964167549745    3.89303506907366    2.99980662450810
H        18.85381308792299    4.32555800695288    3.72397946369618
H        17.48641568517511    5.43815364042571    3.82317119341149
C        15.43185832678401    4.96066864843369    6.08316714150588
H        14.44343899462081    5.22860701504840    5.70276499885412
H        16.10156192244330    5.79713992344233    5.86319725125752
C        15.37312009859076    4.74816032865080    7.59736925175685
H        14.71656322517028    3.91768304249476    7.84174917686288
H        15.00254429872684    5.64529661071184    8.08649003770011
H        16.36328865007965    4.52448746399121    7.98755608971564
Br        4.64604541557961    3.48047899927946    2.93768278261503
Re        5.72365280524464    5.81523497555953    2.80539728848385
O         2.88929169476364    7.00694698549106    3.17032103833568
O         6.15814658181373    5.68782909812212    5.86691929109160
O         7.11554139840509    8.54663892608673    2.44737181108400
O        11.86474345921435   -0.37918187083161   -0.10360289288979
O        11.59578671368588    1.85499897916530    5.31316371751859
N         7.49046240722680    4.72027402028686    2.27955051377072
N         5.56711841455003    5.52782899891671    0.67824155276849
N        11.06841824547899    1.32620468475262    2.17275100364413
N        11.87369033992457    0.28570119222896    2.10656691637559
N         7.34334383847780   -0.09343726448607    6.09716248757565
N        15.92103929219710    3.79953387658503    5.37494111964150

