63
CSD_code = VOYREI | q = 0 | S = 0 | Stoichiometry = C32H20N6NiO4 | MND = 6
C         8.04115500891419    7.85283888243486   11.83636438420682
C         8.11506421487084    8.90334655166057   10.77232735780902
C         9.42530977588464    9.07985241645696   10.13440253537475
C         9.56908729511696   10.04002147473302    9.13399235816756
H         8.70402424035965   10.62651689025174    8.86152773719873
C        10.78838642636287   10.23008140735746    8.51246509270078
H        10.89094685223657   10.97587588040786    7.73847661016406
C        11.87864435476209    9.45871145254981    8.88728530524178
H        12.83425159929080    9.60270234317077    8.40515337493413
C        11.74501018685453    8.50361748247293    9.87913570484649
H        12.58298205293386    7.89427782405381   10.18402931312156
C        10.52448847838258    8.30036243094403   10.51426550477630
C        10.45577445628164    7.25419926263842   11.57508139605374
C         9.17821597323772    7.09077377896385   12.21780194171402
C         9.81327101024433    5.38293300145771   13.71665669638244
H        10.83785119315052    5.38722671144541   13.35970636464578
C         9.42292989742549    4.46647532211053   14.75101607332794
C        10.33824951446825    3.63396102698477   15.40713773602596
H        11.38210129460311    3.67212397769465   15.13797962657183
C         9.88258911324961    2.78522599718035   16.39464291213082
H        10.56670287946808    2.13339832986448   16.91788761560781
C         8.52870588583640    2.78301784975181   16.70776381473991
H         8.13549816433700    2.13270929244713   17.47262339863856
C         7.68620860373155    3.63607023818584   16.01066520077810
H         6.62522195250333    3.65896229436608   16.22528529033541
C         6.46043748666348    7.54686638085539   16.22476170943258
C         6.39348117138918    8.43690396126174   17.42666149747170
C         5.08426802155675    8.53059468499627   18.08394733323917
C         4.94682499846469    9.34071440712432   19.21010609355703
H         5.81584738492619    9.87681460847370   19.56216328640813
C         3.72866491255660    9.44946172620692   19.85304614155961
H         3.63102143481914   10.07908471928572   20.72472760101752
C         2.63320611735760    8.74635898457409   19.37368873102433
H         1.67846331535140    8.82736529279207   19.87195878258240
C         2.76053702661655    7.94013264507167   18.25672160462151
H         1.91845560950717    7.38581822376819   17.86931030576295
C         3.97982663689178    7.82025492437719   17.59843669882719
C         4.04160352406693    6.93414488906884   16.40031343873487
C         5.31820574254774    6.85436140174298   15.74010593605489
C         4.67170809321000    5.38014818937298   14.01520596679303
H         3.64700884533120    5.34127901807018   14.36971642788747
C         5.05598478339316    4.61624586791303   12.86153813021951
C         4.13504703520571    3.89129151714159   12.09492264247862
H         3.09136841374249    3.89851294279452   12.36734001833994
C         4.58509964087811    3.18726358171451   10.99722399217311
H         3.89659429902943    2.62074578619093   10.38755676627148
C         5.93908089724102    3.21961947416722   10.68620264454547
H         6.32799443442208    2.68103270015330    9.83697126539667
C         6.78731977124938    3.95965688979586   11.49631730800276
H         7.84854123440977    4.00506599221635   11.28649876620700
N         6.90384460923637    7.61584483884559   12.41646889543383
H         6.15358587197234    8.22305955695670   12.08567305180839
N         8.93108283073521    6.19793284526760   13.22204056879241
N         8.10962566301554    4.44939003496484   15.06035247200997
N         7.59628853208464    7.38629742038430   15.61630548854723
H         8.35065787629678    7.93538709982383   16.02916140756483
N         5.55945625960261    6.11072529576420   14.61959206962275
N         6.36927645033183    4.63363907547511   12.55218051298595
O         7.12489336619413    9.54377771585784   10.47330057725580
O        11.46257108534275    6.59597750506664   11.84169529835652
O         7.38800931684896    9.02166816477841   17.81263086121923
O         3.03035102834240    6.32718101415348   16.04402306981486
Ni        7.24529585466687    6.16359850394542   13.92145929248970

