63
CSD_code = VOYSAF | q = 0 | S = 0 | Stoichiometry = C32H20N6O4Zn | MND = 6
C         0.61801353019904    7.89083660646949   11.92861566729918
C         0.70188757878679    8.86304924788078   10.78982364051271
C         1.98099665865942    8.93031358437450   10.07337165405921
C         2.12585470596121    9.83641432064487    9.02346652890244
H         1.28471916659241   10.46538020340106    8.77164458604404
C         3.31737119905840    9.92191923277436    8.32875349335488
H         3.42113823237472   10.62700655155633    7.51756479501750
C         4.37821784302913    9.09873663557500    8.67708352447091
H         5.31147850728807    9.16192770236505    8.13712047229695
C         4.24279164850559    8.19520568288051    9.71622736554917
H         5.05640063281455    7.54476636903768   10.00190598558801
C         3.05099026039794    8.09871637845849   10.42555809543290
C         2.96528884954055    7.10473285592410   11.53400840664928
C         1.72139959073382    7.06291206094569   12.26330077211703
C         2.26180805353146    5.36915132719067   13.84332355604085
H         3.28950873165931    5.21620485538683   13.53320365228992
C         1.73036378392712    4.57326689911696   14.91939767041214
C         2.52226061473953    3.64648252054665   15.60986101014688
H         3.55841702021564    3.52382445146457   15.33498216966259
C         1.96026884208574    2.91301510402439   16.63364413158526
H         2.54983053336610    2.19520878174207   17.18475017616982
C         0.62048864629848    3.11426561801130   16.94540706431943
H         0.14284592133009    2.56147781844201   17.73821428015968
C        -0.09325578620207    4.04781767567125   16.21088842627715
H        -1.13800704526001    4.23465918081273   16.41935332466883
C        -1.47003962801332    7.61365287771416   16.35908192004334
C        -1.54665164846517    8.43199061818597   17.61349101988969
C        -2.82560157440551    8.41705527381748   18.33320251077518
C        -2.96365648206091    9.18171344266197   19.49102562927857
H        -2.11750249037932    9.76604601941438   19.82133136522170
C        -4.15485821021194    9.18693787331949   20.19149407924007
H        -4.25326822917233    9.78258130939506   21.08674169839972
C        -5.22223631757271    8.42420250841514   19.74060881174680
H        -6.15527706282244    8.42512144700166   20.28463329950654
C        -5.09358561325859    7.66074983352533   18.59382519033641
H        -5.91235249547019    7.05924342596558   18.22714128835112
C        -3.90217427858401    7.64649853805891   17.87745700919521
C        -3.82393890042663    6.80262244299488   16.65034031120582
C        -2.57993096084319    6.84464041605771   15.92125149679942
C        -3.13307404787827    5.37222289234228   14.13705385147543
H        -4.16221163656749    5.18915850420577   14.42532247760372
C        -2.60740729120402    4.71667284928592   12.96755125179937
C        -3.40635821467783    3.89259562482317   12.16422421645672
H        -4.44367147086968    3.74413930442745   12.42144918446837
C        -2.84966377898969    3.29194739545319   11.05460391604275
H        -3.44465331002015    2.65561894198072   10.41615214575196
C        -1.50808938108323    3.52061520905122   10.77070524827835
H        -1.03444609090274    3.07021125267415    9.91335059637298
C        -0.78726250531851    4.34639959624049   11.61862701116646
H         0.25913414006096    4.54981439816268   11.43546139265911
N        -0.49413269548008    7.81625641812161   12.59457558016488
H        -1.18948949574353    8.46966617683880   12.24003989731783
N         1.47141755219340    6.22986926933539   13.29892657213345
N         0.43764298402208    4.75514589263723   15.23061724282329
N        -0.35814041402100    7.61620646509965   15.68856945894049
H         0.34236487532334    8.21288829909595   16.12378540902873
N        -2.33605264555850    6.14943067592498   14.78714780538751
N        -1.31304463635281    4.92643120924022   12.68173685013518
O        -0.26671551980832    9.54086411328765   10.50065962277375
O         3.92477860127350    6.37222947506550   11.77330919221315
O        -0.57277094143446    9.05918674872417   17.98688379458557
O        -4.78924245362313    6.11486043362347   16.31927482858527
Zn       -0.43151545128487    6.37962116313247   14.05537637481893

