65
CSD_code = VOZHIB | q = 0 | S = 0 | Stoichiometry = C28H24FeN6O6 | MND = 6
Fe       -0.00017608728894    1.20234632584462    4.65796681632544
O        -1.07820091071603    2.66306271085725    3.87427256941902
N         1.17033355238419   -0.04304311851297    5.68343991535662
N         1.31819666872511    1.31527588689795    3.21207823453348
C         1.51747231394005    2.41831449956146    2.57816990949557
C         0.69349439627830    3.58466796244908    2.56957637167755
C        -0.59327988807751    3.62970914690019    3.21462445013905
C        -1.34928921384156    4.83324245251394    3.07514080770133
C        -0.87773169921025    5.91082289328630    2.39054079131461
C         0.38534729428809    5.85020947581587    1.77463575316703
C         1.14577866939185    4.69730295201900    1.86635545437102
N         0.87517320468748    6.96239322812842    1.04557298502776
O         1.98168313176429    6.87193684477195    0.53469045421732
O         0.16696393447196    7.95174055155471    0.95765664356397
C         2.27282418399930    0.26047997257367    2.93920580978796
C         1.87667458572154   -1.05351046700308    3.61473411750501
C         2.01221421037648   -0.89970230703469    5.09518778788791
C         3.00472458504308   -1.56968562782721    5.79806112945712
C         3.15046375603356   -1.35039968277444    7.15706783030421
C         2.28651834829526   -0.44975017886784    7.76326253932814
C         1.32258690025973    0.16978037332406    6.99374493234901
H         2.39364238914462    2.49085865142231    1.92717577618577
H        -2.31324725234068    4.86043575624152    3.55933104251776
H        -1.45023773628464    6.82210188382784    2.30621289619309
H         2.10935989353058    4.67864176138580    1.37645465373843
H         2.34082205836376    0.09392649147140    1.85683725541072
H         3.26486043882188    0.56085992852767    3.29872801656249
H         2.52198691561847   -1.85457851037625    3.25462890462217
H         0.84143707632024   -1.28045571919239    3.36073655650826
H         3.65845565595407   -2.25272345539258    5.27782399742287
H         3.91590134883510   -1.85822957010132    7.72274670106494
H         2.35894152823754   -0.22943608512458    8.81610216552464
H         0.63911515149940    0.87497928866041    7.43825147870800
O         1.07812463891806    2.66296534148809    5.44151663475444
N        -1.17027591910385   -0.04329049569644    3.63244041972034
N        -1.31784679312804    1.31503824302983    6.10447785317389
C         0.59316006409549    3.62973576311384    6.10098749544716
C        -2.01220139943274   -0.89983454495205    4.22075337447388
C        -1.32261540129271    0.16964850403056    2.32218743836338
C        -1.51702854464295    2.41801887555943    6.73848728457855
C        -2.27276123761491    0.26040169534895    6.37692091166568
C        -0.69337705282248    3.58459374484522    6.74648378438065
C         1.34921924978067    4.83325459209302    6.24061411117468
C        -1.87667251948584   -1.05352360259348    5.70124038381025
C        -3.00484162425413   -1.56966625547253    3.51792915786071
C        -2.28662120803815   -0.44976379344673    1.55271726469547
H        -0.63919489683192    0.87489313563234    1.87768769918367
H        -2.39371176765767    2.49093860312976    7.38884680379674
H        -2.34087519263332    0.09376492078322    7.45925945206824
H        -3.26472854842992    0.56094034939097    6.01727246121743
C        -1.14568498203747    4.69723910960527    7.44968232385146
C         0.87770619406466    5.91078392671230    6.92535642629250
H         2.31314524472658    4.86051262967653    5.75636118644316
H        -2.52206645582781   -1.85452632219422    6.06130558712657
H        -0.84146811088084   -1.28054616925711    5.95534202013271
C        -3.15061381317318   -1.35033576954976    2.15893682083292
H        -3.65855679973137   -2.25273845081568    4.03814238520390
H        -2.35897501521397   -0.22950740419627    0.49986401677186
C        -0.38529492582399    5.85017036038576    7.54141738857390
H        -2.10917618816644    4.67851568592247    7.93973236928208
H         1.45005244103576    6.82216346467198    7.00948046370177
H        -3.91597446048475   -1.85824254502445    1.59322273799111
N        -0.87508301469757    6.96229760181359    8.27057677459325
O        -1.98156761620531    6.87188341135865    8.78149779163464
O        -0.16700374923910    7.95174107877271    8.35824442979401

