84
CSD_code = VOZMOO | q = 0 | S = 0 | Stoichiometry = C44H34BrClOP2Pd | MND = 4
C        11.98744156044294    2.79211457550404    5.99746734124363
C        12.50782993809290    1.73899251884944    5.24916439043946
H        12.37926353780531    1.73900762909813    4.17805520151087
C        13.16931184846685    0.70498681087418    5.88572365918207
H        13.57333908689494   -0.11041786630277    5.30404405327469
C        13.31324518649017    0.71119550199107    7.26405509300088
H        13.82779394486617   -0.09982756986014    7.75790326168342
C        12.79749885141211    1.75872621204521    8.00957109130887
H        12.91138529802886    1.76698809354411    9.08373848563434
C        12.13677431741792    2.79913385089481    7.38181663027322
H        11.74484498002886    3.62067454402564    7.96544824095550
C        10.97794779186142    5.50416833507477    6.39062376110317
C        11.83141119527163    6.60558795066884    6.31286515391097
H        12.58307403794562    6.64465657120307    5.53224456649124
C        11.73465308289851    7.62158025608999    7.24811187625334
H        12.39519667179246    8.47438161736255    7.18702126432815
C        10.79422146742876    7.54515341517216    8.26343444031978
H        10.72709388807843    8.33696509335569    8.99442531069310
C         9.93479316346008    6.45982330307290    8.33660099730892
H         9.19137032784620    6.40808143835557    9.11816534549262
C        10.02156720941893    5.44056575835199    7.40484819708190
H         9.35505116870393    4.58965886895850    7.46843456807920
C        12.04770180189767    4.83058459846651    3.79364834010620
C        13.34591072895517    4.51004839734907    3.42754031142043
H        13.94343800567741    3.84898425449770    4.04070869101256
C        13.84755520298216    5.05064004872257    2.25701962577535
H        14.85686380023182    4.82374878131118    1.94545838526975
C        13.04254213828997    5.86045099926778    1.47184303103257
H        13.42561815753333    6.25211388293589    0.53973950855793
C        11.75021726697829    6.18330249158155    1.86205308122527
H        11.15674453037331    6.81958003988229    1.21537020335450
C        11.22655651871703    5.69236449814328    3.05140480067498
C         8.88779757206396    9.47666612137669    4.66227049913238
C         8.87474666028034    9.18095227900987    6.01812637839824
H         9.02357131857066    8.15808291395299    6.33727968742315
C         8.64835447582213   10.18504710105864    6.94270950756120
H         8.62771073988673    9.94958170013868    7.99650287731497
C         8.44150743687973   11.48597734653997    6.51727105211020
H         8.25760480397542   12.26904918561091    7.23832679890096
C         8.47539905184373   11.78831415190981    5.16439375921537
H         8.32352989146206   12.80562094085194    4.83348950921274
C         8.70592444983740   10.79075129775557    4.23632023736898
H         8.75273689117022   11.02693812000940    3.18144851358237
C        10.48691339003349    9.03829612327807    2.46459909779945
C        11.73664670040630    9.14451833966324    3.06846846490550
H        11.87230925353016    8.71547633592080    4.05566896768337
C        12.77616602933751    9.77300445388061    2.41330113536786
H        13.74620550996719    9.85187908243227    2.88198465487121
C        12.57291255990938   10.29709139773586    1.14532019351321
H        13.38514724064795   10.78514163036401    0.62716170129035
C        11.33212980380036   10.19211191074246    0.54027977183291
H        11.17693837523306   10.59934122836322   -0.44836009297921
C        10.28662978719738    9.56277772304532    1.19539762708755
H         9.31907645874160    9.47295877433294    0.71968842976665
C         7.78987919733509    8.08631203640010    2.32496524518184
C         6.68968512900347    8.93207673767474    2.35636254213715
H         6.63773748120710    9.72755148191199    3.08561854166297
C         5.64625380336309    8.73274675748901    1.46727009044853
H         4.78591189390757    9.38516879780160    1.49918023310876
C         5.69811950749963    7.70108804181663    0.54535200166448
H         4.88198673858776    7.55293640657771   -0.14637538186720
C         6.78892706057732    6.84476682448734    0.52153041075936
H         6.82406854144966    6.03154093718544   -0.18889503983473
C         7.82548274648151    7.02569560483492    1.41704693048810
H         8.67685709410345    6.33773148828263    1.42875037900170
C         9.44635211055827    3.98452185401176    4.58045968576777
H         8.62440455841794    3.87459801326730    5.28956331842584
C         9.53377439780605    3.16916151107463    3.39703039047381
C         8.35983897288020    3.02565646748689    2.50362998890189
C         7.30053257630057    3.93311578642056    2.54195716163186
H         7.30400113587535    4.77295903200547    3.23640783535316
C         6.22780581130194    3.78432372590009    1.68368492582297
H         5.40684502300969    4.48439325789584    1.71287766690636
C         6.22293617369886    2.73249520574580    0.78237050406381
C         7.26709195479926    1.82388504338892    0.72293692807268
H         7.24501917419636    1.01349980352384    0.01028894997035
C         8.33381945581100    1.97650263469619    1.58649236496388
H         9.16568028457402    1.28871718913138    1.56120240887527
O        10.62583279081663    2.64787995433729    3.12641815326302
P        11.11718178577137    4.15549754531341    5.16865364214180
P         9.21710189876628    8.16961958036664    3.44561771965545
Cl        7.46442980179296    6.43818249246303    5.14621925762132
Br        4.75448091915474    2.54521217449755   -0.41780754986544
Pd        9.48444687429358    6.01477055542412    4.00279301587680

