54
CSD_code = VOZMUS | q = 0 | S = 0 | Stoichiometry = C26H21CrO5P | MND = 6
Cr        2.46648860708223    1.64463968370272    6.14844863333971
P         2.52587529323582    4.03873068922712    6.75570939935988
O         2.54571737162580    2.28596734483332    3.21273270805984
O         2.52559164168261   -1.22324156587732    5.29627825203716
O        -0.47340102740823    1.01997227923135    6.20469569685886
O         2.78951537680393    0.60190441936174    8.95645823264448
O         5.36513488088495    1.35091279146828    5.45625367219193
C         5.38429364525394    3.35894373208123    8.08819482600905
C         2.32302185500885    7.36389053116637    6.80033781939607
C         0.10324936739282    3.54649319628588    8.62230782198959
C         2.49595451852635   -0.12182023348498    5.63369125761354
C         2.44318314962401    2.11882526222440    4.34628447668290
C         4.29914671466979    1.58065976417138    5.82351172718235
C         0.61693186366687    1.38828208960003    6.23590241805670
C         2.64920452612930    1.07545488173410    7.91721453456997
C         4.18050776651474    4.59072881892966    6.19998913286731
C         4.26082476263219    5.26934336799440    4.98247224711950
C         5.48072667568252    5.60325043212307    4.42868519750111
C         6.64864723653572    5.25361013155246    5.08542615827980
C         6.57982197049341    4.54847710587316    6.27183997006761
C         5.36168510828690    4.18678832893309    6.83737034982613
C         1.37109614927470    5.17920795707238    5.87534218723736
C         0.41775474269422    4.55042221478066    5.07354207919246
C        -0.54193980717794    5.26542730259705    4.38320765997372
C        -0.56725278959083    6.64415339729684    4.49121804994001
C         0.37266162114400    7.27994922091040    5.28022219382253
C         1.34870771331276    6.57877694710404    5.98050383333805
C         2.35330971511302    4.68929095507259    8.46984105088860
C         3.34940851821266    5.46063367248026    9.06479484286548
C         3.22003098284574    5.91644931758543   10.36262682007465
C         2.08460921356474    5.60553170011085   11.09016150124209
C         1.08737694492402    4.84708467419743   10.50591031062658
C         1.20101913993219    4.37903412694728    9.20251669475980
H         3.35042077844014    5.53376320596588    4.46160554190234
H         5.51916720797383    6.12885406043115    3.48652817609872
H         7.60874807369492    5.51297616652359    4.66547978564250
H         7.49081681432506    4.24933466832332    6.77047007127292
H         4.38603414146452    3.03818333507419    8.38106199354835
H         5.82643557116859    3.91725509601990    8.91362535315223
H         6.00028334882871    2.47427772611966    7.92900482797613
H         0.43385148066690    3.47120062325904    4.98832197062689
H        -1.26207805507492    4.74785640218587    3.76803257722669
H        -1.30985851472414    7.22194247631066    3.96193325631397
H         0.35542272836477    8.35780641364277    5.35870928197995
H         3.32197580598034    6.94242940423414    6.73655966267517
H         2.01790062093182    7.37000673303578    7.84652519044123
H         2.35836893764034    8.39460074840570    6.45388585719753
H         4.23412069918762    5.72101883814487    8.50423057070950
H         4.00367234567904    6.51537408024337   10.80238198208168
H         1.97493001225671    5.95462453777033   12.10587332680907
H         0.19890906676117    4.60728154861974   11.07234036665757
H        -0.11846233878851    3.84752530208663    7.59906417540009
H        -0.80364286011325    3.63973591036147    9.21575664212797
H         0.39758068676860    2.49487818595147    8.61451763455226

