52
CSD_code = VOZNAZ | q = 0 | S = 0 | Stoichiometry = C25H21FeO4P | MND = 5
Fe       -0.06299812870722    6.94107974414185    8.62769621552182
P        -1.37217384603896    8.25257748921568    7.37306482509126
O         1.56128510318284    6.15493459413701    6.31083894958526
O         0.77473488926016    9.19724483397313   10.31079624563004
O        -2.33351959237142    5.27077867359926    9.45372466010839
O         1.64634468984231    5.25236533644950   10.24775028910066
C         0.90564134178147    6.48093794835674    7.19924056138576
C         0.42838733812518    8.33329729141423    9.63322882231020
C        -1.46363864051934    5.94326636211638    9.11290217087513
C         0.96696333322776    5.92124425319515    9.60660520623209
C        -3.18350740683703    8.16924703982505    7.70473980209420
C        -3.70765022189844    8.31661186555672    8.99846834582973
C        -5.07254631603619    8.13703610144165    9.19100532315699
C        -5.92222063853736    7.83611087110787    8.14332374550070
C        -5.41111660469899    7.73509715767852    6.86189338099035
C        -4.05534895262421    7.89877106579109    6.64975947966264
C        -2.87164351233222    8.69687204677239   10.17979067711948
C        -1.31743561923458    7.97264084607136    5.55192801861922
C        -1.49063597142009    6.69702390418079    4.99255754140759
C        -1.33219325079250    6.54196353205534    3.62027151589098
C        -1.02804206284942    7.60979101817210    2.79722551182194
C        -0.90247401381070    8.87431679255889    3.34374750366108
C        -1.04454615565941    9.04893208351765    4.70727621059035
C        -1.87759970275805    5.49749645691140    5.79905356659929
C        -1.06028745321021   10.06625547312982    7.47666508404773
C         0.22219214043850   10.60877521030536    7.30003958980028
C         0.40303706088274   11.97320020759967    7.49461803941942
C        -0.64588725284641   12.80497256842393    7.83825724806760
C        -1.91755338870546   12.27632144653652    7.96810828946336
C        -2.11769528830997   10.92050757434462    7.79017968765710
C         1.40197363489463    9.79326697368032    6.87328322127981
H        -5.47187501981789    8.24188514861982   10.18990199130679
H        -6.97734444573025    7.69598967453340    8.32433562138097
H        -6.06256319193581    7.52652800234330    6.02649366654627
H        -3.67233145094795    7.82138065811384    5.64313657909417
H        -1.97188876330483    9.22627497864006    9.87461387571374
H        -2.57465000778398    7.80981967532110   10.74009981574049
H        -3.44181821799839    9.33750345694314   10.85070127023436
H        -1.45629339531452    5.55665630831464    3.19364416098550
H        -0.90452033573528    7.45772240983445    1.73547899001509
H        -0.69152413089911    9.72558089831838    2.71396310449104
H        -0.94836260020321   10.04288422302077    5.11812077941167
H        -2.38678722302509    5.78425460912453    6.71646459680832
H        -0.99581741931351    4.91326059544690    6.06393945928132
H        -2.53921694738709    4.85537376929774    5.21972727821391
H         1.39360399692157   12.38664038185133    7.36776285299983
H        -0.47375301711859   13.86006333050959    7.98939387254074
H        -2.75454338955898   12.91401656802715    8.21009679702829
H        -3.11700660801997   10.52365301056437    7.88971032054723
H         1.09265432491190    8.90160379440157    6.33268310948940
H         1.98703392197137    9.48341162484379    7.73973319050798
H         2.05115840885396   10.38356011967013    6.22855893914395

