84
CSD_code = VOZNEF | q = 0 | S = 0 | Stoichiometry = C44H34ClFOP2Pd | MND = 4
C         5.68652139686264    0.23204488089123    5.05387012910542
C         5.13167420678663   -0.79405405484897    5.80879979136576
H         4.78691713682051   -1.70649852510616    5.33535605756681
C         4.99958388098594   -0.66776226184669    7.18450268686108
H         4.56168957002923   -1.47860180288721    7.75008409737343
C         5.42464690868574    0.47514936342250    7.84312519546914
H         5.33148058420288    0.54832064034652    8.91707375437747
C         5.94307424248981    1.53395792977896    7.11916379554348
H         6.25336575115625    2.44743554013202    7.60817540420611
C         6.05059702920260    1.39776830835942    5.74355985882530
C         8.20662814040148    2.16100358111974    3.99173917085871
C         8.96689211837967    1.26916515460325    4.74904608138631
H         8.56300139201780    0.87758558079405    5.67583718085163
C        10.23813699240221    0.91503225929176    4.33103677568560
H        10.82489294302642    0.22345784681172    4.91820083591505
C        10.76104696113098    1.45035125841837    3.16467888784858
H        11.75708779292122    1.17933721067296    2.84801897980992
C        10.00454957563007    2.32538876756117    2.40038894804424
H        10.40512768112375    2.73008317417274    1.48271586722688
C         8.73043006231564    2.68056511369305    2.80684967355743
H         8.14516583902843    3.36980004854303    2.21124101999652
C         6.73695778203897    4.29658662496271    5.32166095439501
C         7.86972117225999    5.05740974357656    5.04387464024901
H         8.63580032596317    4.66956702045251    4.38682787548159
C         8.02047808064771    6.30650134705101    5.61803395156770
H         8.90007434446127    6.89426296821980    5.39941274482427
C         7.04867398327096    6.80134995461955    6.47243558333669
H         7.16999248059152    7.77708381789853    6.91925841693642
C         5.92236397148858    6.04428557329030    6.75242454182658
H         5.16486583774608    6.42919761856140    7.41923180544124
C         5.76052931079053    4.79613827198007    6.17947771811795
H         4.87955089927602    4.20617006670310    6.37738774260320
C         5.53747067499285    2.38933194994512    3.11902286839843
H         5.83228930725105    2.80285495356274    2.15336275315064
C         4.18559805501048    2.49507001457685    3.60089100543807
C         3.04811325832441    2.10799543112818    2.73767285739113
C         3.22813669057958    1.25886268628761    1.64456260311315
H         4.21415002880752    0.86061021991209    1.40343384559739
C         2.14922077687361    0.90525930251047    0.85719517815867
H         2.26928944584086    0.25258235526276    0.00678316610658
C         0.89715223119268    1.40255413336156    1.17659936903245
C         0.68980068350644    2.23734277637981    2.26115519704234
H        -0.30289312049110    2.59869436770725    2.47931221441056
C         1.77429649518567    2.58475779395254    3.04223529803518
H         1.65504661870962    3.23011324497974    3.89937141672707
C         8.39628418325950   -2.19120153927655    2.04910718276704
C         8.73946484041751   -3.53014765412819    1.87423065566171
H         8.04945480646478   -4.30769584218157    2.17424302549956
C         9.96462794565253   -3.85950376968350    1.32608419907215
H        10.22618901632801   -4.89766328970831    1.17998472235810
C        10.85707111086296   -2.86115592089097    0.96621520165842
H        11.81201389474593   -3.12394731150569    0.53487410298372
C        10.52729389072756   -1.53127065004302    1.16434976994033
H        11.22432015286556   -0.75345435191946    0.88970346842020
C         9.30037741135636   -1.19495371704492    1.70804190711082
H         9.02378700864197   -0.15930928591106    1.85461578685564
C         6.81620396371448   -2.93499179162195    4.17871235692006
C         6.03561283675027   -4.07991939026357    4.25478626711630
H         5.35724774795279   -4.32598362274477    3.44865964709658
C         6.12447512018253   -4.89812199790465    5.36878924349354
H         5.51626699252650   -5.78912183217710    5.42889502344917
C         6.98523988789626   -4.57622907185139    6.40418652755045
H         7.04608909666912   -5.21584425658341    7.27232119794419
C         7.76603741810974   -3.43216078619627    6.33107271655091
H         8.43379998590575   -3.18059733413457    7.14205238505743
C         7.67947642646819   -2.61442154401465    5.22267745159173
H         8.26980168272779   -1.70743253850829    5.14547373375576
C         5.49318594005734   -2.39159888511389    1.69822611739733
C         5.69884304955528   -3.16827066216974    0.56652152274651
H         6.70077384637032   -3.45081397655221    0.27750839551962
C         4.61556084855583   -3.55504449617495   -0.20532390402464
H         4.77762547098705   -4.15187743543464   -1.09101379788898
C         3.33234125052253   -3.17463685386619    0.14822165399050
H         2.49232730039555   -3.47996898270338   -0.45825167278932
C         3.12462242728433   -2.38546258330317    1.26996200728625
H         2.12482988704929   -2.07554506298085    1.53735745727914
C         4.20121742620392   -1.98394941651484    2.03710370959548
H         4.05387685667790   -1.33734307069155    2.90823987135379
O         4.02618308624414    2.86895423020718    4.77415782569304
F        -0.15853740561116    1.05384082397615    0.41078877647249
P         6.54390167706664    2.65528267290895    4.56427160965442
P         6.79714893826426   -1.75277650034642    2.78893867038654
Cl        6.72156108714417    0.49970365215435    0.81857460955368
Pd        6.15151335295136    0.37052179423033    3.10365263568912

