86
CSD_code = VOZRUX | q = 0 | S = 0 | Stoichiometry = C32H44CoN4O4P | MND = 6
Co        0.39672699066723    4.76220925282375    4.30370927244418
O        -1.45791434976684    6.87341293572626    4.23608698201613
N        -0.66855814792539    6.08449155727379    3.55546487105471
C        -1.19844935271214    7.28812926747261    1.47857176388546
C        -0.50709730364912    6.23002867408743    2.27646488197260
C         0.40986932320145    5.29226094167104    1.69693725298273
C         0.69391768551722    5.23706806897296    0.22908209038761
N         0.96072643827849    4.49485099333415    2.56108434035049
O         1.88984822248775    3.64374425406002    2.21596852162735
O         2.45024446222160    2.75807130151964    4.46669631070204
N         1.55873990845690    3.53068421452528    5.11218155603556
C         2.47643998600535    2.73601140091920    7.25475895308138
C         1.55912308494192    3.55554867905350    6.40571852258557
C         0.59249512833546    4.46059826491104    6.97144444816655
C         0.42268686337630    4.62968021198699    8.44549596101750
N        -0.10188044285417    5.09986551660773    6.08727989856863
O        -1.03802413551246    5.96773758224170    6.49318283192541
C        -1.07963701165844    3.28145272218521    4.03923319131246
C        -1.70885184997185    2.91322508108510    5.38468543577799
C        -2.19808588599622    3.75810084638228    3.11148372604238
C        -0.46009542760651    2.01612840771470    3.44132155442627
C        -2.77042231300371    1.81600259749244    5.20632202613025
C        -2.12793992940103    0.56775878223399    4.61263323640301
C        -1.52490588071600    0.92459489785870    3.25886611965761
C        -2.61846044900741    1.42202323691753    2.32106415538522
C        -3.26011264411299    2.66263370353863    2.93136974235455
C        -3.87412872107267    2.31787851410427    4.28299555795397
P         2.12843522957510    6.33638493310457    4.50240845646381
C         1.97944545521750    7.31184484627449    6.03254559593167
C         2.82615124983793    7.15383755163629    7.12541605966196
C         2.58985762662483    7.85011791789166    8.29772096239232
C         1.49985149239942    8.69738671863983    8.40173226622524
C         0.63186228049700    8.83339290671428    7.33125952999157
C         0.86204459045747    8.13898370397411    6.15893126447980
C         2.35463139801976    7.57654147408196    3.18143153027282
C         2.08759985095656    8.93292884704912    3.31831671043187
C         2.25814357457182    9.78794598603954    2.24295478242235
C         2.69879616158956    9.30321712197162    1.02368198368813
C         2.98275894841981    7.95417119527298    0.88442368716233
C         2.80847225589501    7.09560974401199    1.95295348660941
C         3.84261463881215    5.64116177234635    4.56005221511563
C         4.95351376439212    6.68367627177554    4.51001203329825
H        -1.89412110923275    7.81604863603270    2.12667576771539
H        -1.74337884807965    6.84849816619195    0.64542798826804
H        -0.47312933341194    7.99841556865625    1.08129226510750
H         1.50785223864322    4.53720507008745    0.05276446189400
H         0.96390489114454    6.21922325011270   -0.15274668299014
H        -0.18853335985192    4.89119110008283   -0.30934872994815
H         2.28223250643869    3.00714968749559    3.42225184554282
H         3.18630927675842    2.21299973965065    6.61830419414603
H         1.90812508607743    2.00210777814505    7.82488922850233
H         3.01366622245783    3.36787187013937    7.96007226984273
H         1.33418542711449    5.02841908436949    8.88913607192076
H         0.19910956809782    3.67449828991980    8.91725737702215
H        -0.39217138532832    5.32406275699556    8.63249308939215
H        -1.36544031590863    6.43419531795590    5.55737586453862
H        -0.95195056844411    2.53957950105210    6.07786872095240
H        -2.19724756599018    3.77860639512511    5.83453401161530
H        -2.69043670918296    4.64097754092783    3.52149544444284
H        -1.80162373513336    4.00841783487215    2.12610109337704
H        -0.01493953961363    2.21587514693577    2.46728649246022
H         0.31513669251169    1.61400080042564    4.09347911062460
H        -3.19301909097561    1.58071709152774    6.19084323034380
H        -2.87611740432682   -0.22075798990493    4.49652116955638
H        -1.34858983454874    0.19364518230774    5.28104968348142
H        -1.04291346388795    0.04013102123989    2.82583584622800
H        -2.19042669907970    1.66398927411752    1.34550846448494
H        -3.37110329856213    0.64302990616123    2.17332059475795
H        -4.03936853514300    3.04317893970317    2.26009794771701
H        -4.34723589011017    3.20294755001630    4.71404238790142
H        -4.64280239955282    1.54999085825833    4.16306884584253
H         3.67097112923809    6.48332703552482    7.07622986938898
H         3.25900018794320    7.72431174216201    9.13736696018097
H         1.31919131797092    9.23590053632779    9.32019720981425
H        -0.23692881987873    9.46888009102864    7.41370266174868
H         0.15354713388245    8.21590971418543    5.34631381036049
H         1.75981617712366    9.33302493836197    4.26531312478787
H         2.04707058731378   10.84070899929752    2.36139695413368
H         2.82732580092021    9.97409590375237    0.18709844071112
H         3.34236792092415    7.57071586355752   -0.05962434602599
H         3.03726502182854    6.04658573038463    1.83444833970640
H         3.93276608439543    4.95334278516758    3.71473318859721
H         3.91700207314678    5.03216109246209    5.46502112591652
H         4.81485578149928    7.45151075915756    5.26867373669851
H         4.98037742054384    7.17321627720117    3.53930893075768
H         5.91676659530897    6.20400026607303    4.67577816894339

