49
CSD_code = VOZSAE | q = 1 | S = 0 | Stoichiometry = C22H23N2OPd(1+) | MND = 4
Pd        1.11044155687486    1.74926069847231    0.15165472655874
O         0.75925676010800    3.10639400895707    1.62140914074070
N         1.35702644242030    0.26894269339410   -1.15391847992377
N         2.29730162432733    0.39878656693434    1.34138975653265
C         0.74197840363308    0.16131652202938   -2.33091972757438
C         0.87945278533107   -0.93802575459160   -3.16138344383480
C         1.68956252677985   -1.98506891787645   -2.75196465242495
C         2.31788513561813   -1.88843497302648   -1.52343060230746
C         2.13887074174887   -0.75208321811126   -0.73592209831657
C         2.75336796872633   -0.62370358858113    0.59883465559476
C         3.72423529338555   -1.49059326425917    1.09885642080621
C         4.20562149252637   -1.29564528791419    2.38340327207342
C         3.71043529489435   -0.24456059012859    3.14009428008813
C         2.75552985251066    0.58557923262064    2.57138890476346
C         0.13193805428247    3.12125966787396   -1.03183774980443
C         1.12983204109896    3.59635447580761   -2.09869672413117
C         0.52949366232473    4.66485074769935   -3.03938352129924
C        -0.86512214131902    4.40151400608810   -3.63053804380670
C        -1.75149628830927    5.39361207885497   -2.93983041907846
C        -1.08395769961328    6.20831487751340   -2.13887495784049
C         0.38064224920960    5.89710656840887   -2.10752362690356
C         0.94683899499095    5.39357215770278   -0.76325558789370
C        -0.08743566396987    4.39916805761184   -0.16887054032628
C         2.06219506692215    4.46120935922244   -1.23509719536336
C         0.19101812469757    4.14221611837826    1.26781191852863
C        -0.22347076353202    5.15518521150828    2.28444098216431
H         0.11086721018347    0.98701271384440   -2.63005880093228
H         0.35852979641538   -0.96937842304073   -4.10408750586771
H         1.82296621034844   -2.85978452059185   -3.36840561593199
H         2.93264554886366   -2.70042707854737   -1.17317249285294
H         4.11193077189555   -2.29773959637964    0.50007598866650
H         4.95616421580264   -1.95755154847537    2.78635766896007
H         4.05774476358419   -0.06781195020281    4.14480610724764
H         2.33866984655032    1.42478340615809    3.11718960608526
H        -0.82544493729033    2.76270746298195   -1.43934795630176
H         1.62240474822538    2.78900690714279   -2.64958798524213
H         1.24694961021872    4.85711680424675   -3.83829875297343
H        -1.20929380001888    3.37667676641365   -3.48380120131403
H        -0.87461780500013    4.58758024169686   -4.70646956274712
H        -2.81022445891193    5.42094130337454   -3.13101108367727
H        -1.49938417100415    7.01962319816613   -1.56660456185756
H         0.96682277597644    6.75552188669170   -2.44429156693969
H         1.23568245269072    6.19057267890583   -0.08088103808725
H        -1.09233588404413    4.81938562446363   -0.28257220043392
H         2.82658219281587    4.98136841412473   -1.80869319027040
H         2.53957744861054    3.88647937981064   -0.42128460213828
H        -0.10971559771324    6.16682315816507    1.90515498658658
H         0.33638226737050    5.02948609577141    3.20796004120210
H        -1.28084472126902    5.00467962075849    2.50598703180040

