74
CSD_code = VOZWUE | q = 0 | S = 0 | Stoichiometry = C37H29IrN4S3 | MND = 6
C         4.48451170542893    5.85624349041250    4.88010839975514
C         5.16971550294141    6.56108741509598    5.86282667769664
H         5.73055808649769    7.44782202979514    5.60250433496703
C         5.14062455587976    6.15269041993873    7.18575777512837
H         5.67940000967531    6.72137304003601    7.93068426947352
C         4.42606384477842    5.02458891452632    7.57280383909731
H         4.41205442795957    4.72265076682099    8.60955980237846
C         3.73106017846843    4.30103096703127    6.62959127911905
H         3.15706031457015    3.42637264664091    6.90298817366520
C         3.76280373049065    4.71657948234866    5.29801870151362
C         3.05700066287038    4.07691427300727    4.23375863045041
C         2.38402987296520    3.89136328124301    2.11524939825488
C         2.22943496995867    4.16353741241578    0.75787866915759
H         2.74389031864232    5.00429722012229    0.32533752446817
C         1.41650071900994    3.34965943193788   -0.00057901155075
H         1.28765955689722    3.56050928937378   -1.05161101276911
C         0.75447470543786    2.26211075712881    0.56394572360562
H         0.11770198030317    1.64484749728986   -0.05110889029984
C         0.90532026701460    1.96310296881511    1.90318662424416
H         0.40154579277990    1.12208749216921    2.35239329384164
C         1.72094499701342    2.77908874626998    2.66708496477175
C         5.97259123735493    5.26428562270482    2.53562001550175
C         6.19158844890126    3.89503046309813    2.40858005816669
H         5.37782285913753    3.19734816625976    2.55172017302479
C         7.44326034304695    3.39245632897090    2.09297304023769
H         7.58044432266259    2.32437894950718    1.99992644959622
C         8.52561561898987    4.24103898069371    1.89388223956173
H         9.49467810493351    3.83426959070604    1.64662024821964
C         8.35392402400941    5.60187402527465    2.01870767658145
H         9.18031171526440    6.28419475709720    1.87399761745785
C         7.09178077883432    6.10266925197518    2.34027601978200
C         6.80399688658065    7.49434988602241    2.49994228298022
C         5.50680797694462    9.24366198306925    2.97515756536028
C         4.39920255257293    9.99087458863640    3.37252315280313
H         3.48977198327939    9.48967291888122    3.65578808388911
C         4.49601570661780   11.36505622758603    3.41492419775690
H         3.63856258734153   11.94388073265034    3.72217169737342
C         5.67792608228538   12.02013177718039    3.07650808481461
H         5.72580572010047   13.09749060483077    3.11779605443289
C         6.79499056873395   11.30218980603893    2.69866725991045
H         7.72170813472832   11.79291291343709    2.44632033490114
C         6.69956726326676    9.92191112898584    2.65450552715805
C         5.52592292355328    5.93127049999284   -0.70638227756024
H         5.38273741403976    5.59668339629280   -1.73202395049937
H         5.46414495609240    5.08103560800274   -0.03260023624417
H         6.52610499750733    6.35695830793768   -0.62489547912386
C         4.49936720110681    6.94615598666830   -0.35235921000180
C         4.00550370412348    7.97916957129847   -1.16109289091059
H         4.30443957094667    8.20772506690899   -2.16366352980619
C         3.05776694699332    8.63574821238553   -0.39768187992212
C         2.19595560138024    9.80763491294727   -0.69032982993569
H         2.41304998501395   10.19393658869388   -1.68193629913348
H         2.36831026666067   10.59424332854448    0.04348961450133
H         1.14355066703540    9.52949938249315   -0.64324040864857
C         0.82568265628499    6.37024059519612    3.48578202762295
C         0.44443817121921    5.69166378842344    4.63995485027056
H         0.94974381222901    5.91054303485842    5.57081725955711
C        -0.56162026404492    4.74683394646489    4.58711626551018
H        -0.84502486726665    4.21823521149653    5.48658441385922
C        -1.20184170329783    4.47251851723772    3.38926369443553
H        -1.98494957527157    3.72943210817814    3.34969316753087
C        -0.83612910005301    5.15905874879156    2.24317424485777
H        -1.33437731685179    4.95322924759838    1.30607287291025
C         0.16939105963210    6.10477865687062    2.28704962457092
H         0.45336260579798    6.63779685116959    1.38986482551210
N         3.12450502336626    4.59992137350273    3.02436810413654
N         5.59802466881915    7.87881482085537    2.86249927481698
N         3.88348526393985    6.97916785741465    0.82625277146062
N         3.01876353290412    7.99878784818157    0.78076283144623
H         2.44380421959386    8.15165545696083    1.63714763703944
S         2.08599974212918    2.64604243452371    4.36309632983533
S         7.94370173985326    8.77889362214361    2.23559998125468
S         2.09239166683123    7.57837095253102    3.57894789870406
Ir        4.26136531457859    6.29181781938700    2.92928135544165

