63
CSD_code = VOZWIS | q = 0 | S = 0 | Stoichiometry = C31H24FIrN4S2 | MND = 6
Ir        7.55189115156223    4.18190606587538    7.03751846894786
S         7.65828358707101    3.49803014739484   11.45914801268134
S         9.00763749897541    4.78190330646632    2.85212677097193
F         6.21421146696464    2.95749032452795    6.02082659490932
N         7.32203505529125    3.38591710454918    8.90068501757221
N         7.91310076509500    4.96824929048044    5.18562059239416
N         5.66428574738467    5.27514070346607    7.59294630356205
N         4.59051987576420    4.57512938214956    7.22100595364363
H         4.75148483508850    3.77792517210376    6.60365784337105
C         6.56884197538297    2.36044156729232    9.40464150776256
C         5.81161118354640    1.44307362112345    8.67864427173734
H         5.80419435487774    1.50016324222558    7.60347731314506
C         5.10838447240329    0.47506431114430    9.36234489534467
H         4.51899615652285   -0.24182386745627    8.81109793464918
C         5.14805982388010    0.39882282104120   10.75337472926594
H         4.58703547386544   -0.36963712920551   11.26315850095351
C         5.90474157174132    1.28876232636117   11.49074571497520
H         5.95113228049509    1.23149983587777   12.56688939181524
C         6.61293022575423    2.26292105701384   10.80847839110833
C         7.95506131673631    4.05714305624943    9.83870676377069
C         8.79820896786482    5.14546671239832    9.45649840421184
C         9.54612009854564    5.91107538355491   10.35133186482041
H         9.50574430950281    5.69199310175117   11.40978006195760
C        10.32567247796513    6.93727330628676    9.86541024692102
H        10.91298685103583    7.54264821873634   10.53985987788131
C        10.35451111396524    7.18825333965385    8.49817509081062
H        10.96982090368246    7.99250315900250    8.11906455988015
C         9.60728966989215    6.42424564407583    7.61736010327047
H         9.65574355267275    6.65377206085895    6.56131745220979
C         8.80088213596811    5.38031193065389    8.06206589317153
C         7.35804880589647    5.97753040358739    4.44698732537088
C         6.42749811348856    6.92309196247863    4.87471602982521
H         6.07755044559396    6.89691359670189    5.89256500721631
C         5.98047250465958    7.87459641931964    3.98345844086687
H         5.25816497370248    8.60820389995352    4.30864583593413
C         6.44506888576043    7.90990081409461    2.67034344905668
H         6.07622629642051    8.66424935081232    1.99241830101096
C         7.37793585834546    6.99302305902676    2.22758972875771
H         7.75153935605104    7.01457297803213    1.21611916238469
C         7.83000535107017    6.03634192472132    3.12055391020236
C         8.79035105259706    4.26852667070279    4.49685709296169
C         9.49221953156446    3.20514817937640    5.14462818525185
C        10.47656384522195    2.42388974787707    4.53917296169966
H        10.74004049579140    2.59956985925656    3.50525030364621
C        11.09294208763283    1.43527970141141    5.27406222485026
H        11.85692266426665    0.81849608490791    4.82446138734475
C        10.72341099907284    1.23181550748659    6.59824474087472
H        11.20816599119729    0.45390786253874    7.17151340759834
C         9.74093687557318    2.00633207864043    7.19322048829657
H         9.47892140267148    1.81081364445533    8.22376226042774
C         9.09849415422478    3.01657161702358    6.48740841878519
C         2.13186814753156    4.45632153236197    7.49473543818825
H         1.48802110481121    5.16491928490799    6.97508850746071
H         1.64650269804183    4.18633551719582    8.43124014876270
H         2.23852724857155    3.56443288230294    6.88241223191800
C         3.46310268216227    5.05896890280334    7.75618845481326
C         3.83905832224446    6.14837293135049    8.52289338642021
H         3.20239580860655    6.78803118683505    9.09908393553120
C         5.23095738084461    6.24543933541377    8.39231948104749
C         6.13381913821506    7.25280707807683    9.00886479500876
H         7.06769430387257    7.31231737374668    8.45626371690873
H         6.36676289038367    6.97509871778641   10.03716749036914
H         5.65299168439542    8.22891469915854    9.02250522349524

