63
CSD_code = VOZWOY | q = 0 | S = 0 | Stoichiometry = C31H24ClIrN4S2 | MND = 6
C         2.39151896063869    5.82793006320477    3.02123418813579
C         3.36927122344610    6.73347360454021    2.61327899952613
H         3.70483003419588    6.72537206605175    1.59049397221688
C         3.88226222169111    7.62334354684646    3.53200607043525
H         4.64264545252004    8.32457279484370    3.22285156388955
C         3.43779820717375    7.63659144238011    4.85253690590731
H         3.85963770358135    8.34180381018560    5.55204691767964
C         2.45922507488881    6.75942464358463    5.27603131136403
H         2.10134377047549    6.76361060362409    6.29336235329299
C         1.94154946457891    5.86404551654598    4.35551593918021
C         0.86916631328578    4.20016428751005    2.93605560988202
C         0.12153240119850    3.17812480560141    2.27083692142272
C        -0.86523591763592    2.40197393126339    2.87838049013342
H        -1.10721692426178    2.56190279735340    3.92005823868787
C        -1.50674969495857    1.43441395421582    2.13669731022196
H        -2.27083286002909    0.81969481663016    2.58874262953655
C        -1.15916510721713    1.24644611452229    0.80467853424712
H        -1.66026630222922    0.48223514766545    0.22725011765451
C        -0.17561176741884    2.01797591809448    0.20684746191243
H         0.07123869409860    1.83381786775233   -0.82960016916688
C         0.49124302045734    3.00717967050484    0.91920138037099
C         2.95222888393140    2.43562910711229   -2.15793856354630
C         3.80637295287724    1.52032241507491   -1.54494464748318
H         3.92185892475371    1.54000858175509   -0.47258988597287
C         4.47221602293781    0.60276261521192   -2.32850781721009
H         5.13412065564282   -0.10973280462270   -1.86036863776670
C         4.30477779374548    0.57248763225028   -3.71156132068329
H         4.83806004781564   -0.15813603300895   -4.30048771209132
C         3.45836897090557    1.46476755582359   -4.33951752364874
H         3.31492082308489    1.44902544506911   -5.40845758148372
C         2.78894324049175    2.38922882413690   -3.55611662454943
C         1.49789349006123    4.10940779919681   -2.41064917938354
C         0.68135175022424    5.18414124106472   -1.93719164158091
C        -0.13540139228625    5.96693538167539   -2.75291712557904
H        -0.18404511519013    5.76578155842682   -3.81419310263255
C        -0.86925098753327    6.98662857690986   -2.18741763409018
H        -1.50843816786679    7.60325140071048   -2.80134577527966
C        -0.78381430885573    7.21682762830147   -0.81964929367595
H        -1.36162046702107    8.01642055918222   -0.37794780178698
C         0.02947096661373    6.43615356962280   -0.01427789385125
H         0.06910382333053    6.65013909915444    1.04503289555394
C         0.79005150629626    5.39870463369904   -0.54538348820830
C         3.46575347388699    7.18255040095871   -1.52867751521434
H         3.16852414316685    6.90606127870807   -2.54072939093009
H         3.96379845339225    8.14891756400324   -1.57367965010928
H         2.56597839647162    7.26203027220344   -0.92416626720244
C         4.38400615389125    6.16081434283975   -0.95993858435852
C         5.77192425858102    6.07384929607089   -1.12512833195208
H         6.39253993468064    6.73188891784219   -1.69823157178520
C         6.16889769543518    4.96492695512694   -0.39784289404761
C         7.50844429648366    4.36766639298654   -0.17151480718016
H         7.40940942708276    3.31763415317190    0.09299592673195
H         8.01997424903913    4.88041492977056    0.64344952405538
H         8.12001915214465    4.45829550307224   -1.06600104445333
N         1.77210707229911    4.87586282256420    2.25698207520822
N         2.21393462389976    3.41820356378858   -1.54945085925079
N         3.97243632258488    5.16543261826389   -0.17766212699096
N         5.05805020191724    4.45839408823131    0.15013065493537
H         4.90675103876975    3.63778976990900    0.76137374371694
S         0.70141230580519    4.66575647210618    4.59888151360811
S         1.66690284610341    3.61990120504179   -4.06877964470198
Cl        3.51000923861232    2.49981223600392    1.64870507165481
Ir        2.07017333330623    4.13534502767118    0.37230778668566

