94
CSD_code = VOZXIT | q = 0 | S = 0 | Stoichiometry = C35H42BIrN6O9 | MND = 6
Ir        4.89024462021561    8.65972664401909   26.90323915516500
H         4.06280351524684    8.24410009626517   28.11116101842179
O         6.76969311910337   11.31326260928719   29.18961934891395
O         7.40798582323844   10.58168429991970   27.17311776075272
O         3.97993384449659   13.02045812114747   29.66869218919029
O         5.39346554944306   13.41344545865960   27.96818031542525
O         0.76664442976547   12.15349262756986   28.18122111300979
O         2.28904959840749   13.61917317568035   27.42557606578875
O         0.76970402456123   11.68167173348636   25.30372036258191
O         0.32593313090346    9.54930998828950   25.83705586712380
O         2.31316839691741    9.63209056716095   23.82098564017912
N         6.12357434200582    9.05889689447454   25.19442159328210
N         7.08423619325340    8.18407288710818   24.86576048859150
N         6.62376690086677    7.83143073601637   27.90144615724737
N         7.55757950953190    7.25009035196650   27.12492958473246
N         4.80264697203158    6.61864411027566   26.17524541997597
N         5.92944655628912    6.11258974107914   25.63720184519766
C         6.20302358683452   10.09564534240239   24.36541131462755
C         7.25232172107540    9.87194988015077   23.46974714377572
H         7.57216201636617   10.51781711201495   22.67726754430919
C         7.79143040782139    8.64830071377460   23.81984102134464
C         5.30966296714644   11.28054158578518   24.40965598263233
H         4.27447718911344   11.00006561534670   24.22273613113650
H         5.61847832608489   11.99533599675105   23.65063830176918
H         5.35554215929075   11.75946561691801   25.38604301175231
C         8.93209206339757    7.92627403007280   23.19799326420997
H         9.72796709469046    7.76089398357897   23.92239196208468
H         9.32500356635896    8.51473182835905   22.37302423637213
H         8.61628307244597    6.95606170258758   22.81784024381211
C         7.09750779374770    7.89365923533210   29.14517738669452
C         8.38892946948626    7.35800744993450   29.15921917398697
H         9.04016714618620    7.26875256488623   30.00499835090515
C         8.64536803676681    6.95979894489258   27.86035447203627
C         6.33917894005740    8.41147682869478   30.31236414595979
H         6.60562654376663    9.44711352769617   30.51797544678510
H         6.57581522400513    7.81772124520507   31.19286480481490
H         5.27074944127005    8.37368580226134   30.11928433932523
C         9.87574194404042    6.32803834872017   27.31632906900491
H         9.66522660173822    5.32638057597937   26.94496437053855
H        10.62399004513014    6.25933303257274   28.10150909985708
H        10.27978112057310    6.91534580826595   26.49358259205824
C         3.86045508131705    5.67849025948639   26.12135912233590
C         4.39273729042602    4.54144122224668   25.50968204054326
H         3.88851092593590    3.61705601535098   25.31448609210728
C         5.70827063954131    4.85359135212539   25.21959985782397
C         2.48921767971215    5.82969204897234   26.67674703747497
H         2.34036467201415    5.10136727073323   27.47311490941748
H         1.74160255869106    5.63539030538782   25.90875381601318
H         2.34712337122909    6.82647276081052   27.08404241690291
C         6.73107890148272    3.99587969065745   24.56686250668046
H         7.13198042480706    4.47970343131168   23.67812123773709
H         6.27888346284555    3.05021634945198   24.28014343611037
H         7.55823083183835    3.79716677283248   25.24615989070767
C         5.11736288317674   10.49052537653855   27.64769573034264
C         4.14470322059230   11.44295652499193   27.86216253192008
C         2.84344582985677   11.34345371833688   27.33228222073827
C         2.45432637918823   10.37412214509542   26.40575177315190
C         3.28140173395275    9.33409335501102   25.98093861312742
C         6.48585561575608   10.84868022502942   28.11104461873797
C         8.75475590501147   10.85046517837435   27.52045214982438
H         8.84762908559909   11.85876818305814   27.92954555546783
H         9.33233588464827   10.75336240555707   26.60397413624394
H         9.10227786112811   10.13267280672663   28.26836488031156
C         4.47659302117383   12.69762534569585   28.62562663607372
C         5.85401877072913   14.58330119818356   28.63163087380277
H         5.00693838222655   15.18203263024122   28.97113925918398
H         6.44972432392676   15.13249780708381   27.90672913741517
H         6.45958831451298   14.29948686823337   29.49484843296852
C         1.83939062900193   12.39656411304509   27.69659700366258
C         1.41932125055412   14.68844369765695   27.77487100911443
H         0.42175742963441   14.50338738119626   27.37257536608371
H         1.85006634707882   15.58695656027615   27.34037206413765
H         1.35838235459757   14.77455803912505   28.86177402551270
C         1.11307973292997   10.62463437326554   25.76505126517359
C        -1.00165535155643    9.72265216482446   25.35917600340758
H        -1.46781219166524   10.57307447714097   25.85985275888732
H        -1.53052741817319    8.80247361345568   25.59412905161631
H        -0.99851903323021    9.89986520233260   24.28115245570398
C         2.84904338989497    8.66104398970719   24.70069510058463
H         3.68758137370545    8.14825284638791   24.21293713847362
H         2.08544805038655    7.91355906622297   24.95295496627876
C         1.47447477604693    9.23755744810063   22.82208525539995
C         0.80757975204337   10.26755033456159   22.15645074536494
H         0.98690101150412   11.28111763236352   22.47888624812320
C        -0.06818139070943    9.97723882638748   21.13136584454807
H        -0.58354893515420   10.78070997928755   20.62672428319144
C        -0.29223884557431    8.66154058921947   20.75345422345285
H        -0.98011838980650    8.43498007681250   19.95327173860922
C         0.37370662795635    7.64267001162102   21.40788788390649
H         0.21007267174015    6.61529790085621   21.11687821049914
C         1.25751049434176    7.91955255489494   22.43899649080205
H         1.77398262212589    7.10637810621850   22.92575970846116
B         7.26209350451474    6.89018637485204   25.66010357814746
H         8.12999348281320    6.23360657809193   25.20835133232926

