90
CSD_code = VOZXUF | q = 0 | S = 0 | Stoichiometry = C31H42BIrN6O9 | MND = 6
Ir       -1.20001756770179    0.57818964516073    3.64978418823680
H        -1.22905815645037   -0.59742238824115    2.69163880558536
O         1.90157021569486    1.01890726604096    6.03018084648906
O         1.79174612459916    1.94756479801314    3.99664644725725
O         3.41847875445140   -0.65030943079134    4.27423262565052
O         2.91211214664020   -2.70886056798767    5.00640184697213
O         1.05167891421559   -4.77434665808953    3.58579726423528
O         1.77682399405640   -3.08342985733381    2.30643415388046
O        -2.62615900516975   -4.33137684372003    4.70922788177251
O        -1.49952517812647   -4.14458278891946    2.77315381976332
O        -3.28537196240020   -0.32558751558270    5.58739063433262
N        -0.18853496074306    1.69120609586458    2.15723572056168
N        -0.51092638425484    2.98652007509559    1.99336089054424
N        -2.91118524908653    1.42337286983050    2.68358510580736
N        -2.91809275895596    2.75600592723680    2.49954137639103
N        -1.19866918322392    2.37147774687026    4.91075537037739
N        -1.32703754681889    3.54850683852371    4.27278240487227
C         0.82333145209789    1.41176444850397    1.33909479341467
C         1.15990837239186    2.56765837032536    0.62988569570897
H         1.93297159467707    2.67186400020538   -0.10423525329159
C         0.29375057873769    3.54767544650959    1.07379658582246
C         1.48609077017824    0.08879567761645    1.23116501444135
H         2.25264872354642   -0.00238522790474    1.99919492165872
H         1.95978767603065   -0.00450937788843    0.25642651736747
H         0.77455490335233   -0.71875363171167    1.37510113040589
C         0.21217603052955    4.97092635390788    0.65144932621895
H        -0.75959130615870    5.19011796794352    0.21151760344726
H         0.98391452593044    5.17261880565192   -0.08672678376577
H         0.35569232009226    5.63682295575650    1.50085659578755
C        -4.04530621822145    0.92865322342148    2.19176744532261
C        -4.81541183682224    1.98161042093595    1.69350098953922
H        -5.78240923500521    1.91638420443086    1.23794135733631
C        -4.06507804201451    3.12490234566069    1.90194430272834
C        -4.37909041312459   -0.52078037758407    2.17105677001606
H        -3.77948970165713   -1.06731619010951    2.89402646525247
H        -4.16696721403660   -0.92989572576299    1.18414931580080
H        -5.43709439734195   -0.66941722659855    2.37729951354955
C        -4.41536398060220    4.52734109225080    1.55814883566931
H        -4.36026802878184    5.16645668450937    2.43746069742386
H        -5.42607071679177    4.55990250610440    1.16009036094271
H        -3.73113577716552    4.92318318271116    0.80952778592976
C        -0.97126115663634    2.62519002715838    6.19776751716314
C        -0.93344755790847    4.01000338152436    6.38602505190624
H        -0.76214293005744    4.52979525301526    7.30679457450478
C        -1.15981182088678    4.56354739564778    5.14056170445505
C        -0.81848448090288    1.59432918654303    7.25663907283618
H        -1.05116427577369    2.03292190401822    8.22490574053607
H         0.20877034312018    1.23228044768767    7.28141390431999
H        -1.46924478864586    0.74345119006187    7.07852007302905
C        -1.22045829876131    6.00116705087280    4.76906903938923
H        -0.47238348938576    6.23601326416403    4.01371662456498
H        -1.03246546721809    6.60886731299213    5.65046041370160
H        -2.19899944085964    6.25879414366883    4.36663870061440
C         0.59981230095103   -0.07519333855905    4.37564127654804
C         1.13005676286731   -1.32729437344717    4.36814585086804
C         0.36074808066476   -2.52576238798685    4.07331711658386
C        -0.90903485742599   -2.69259637019977    4.50188348470913
C        -1.54994958376986   -1.79717172121133    5.51644115910759
H        -0.78135899553179   -1.49199903499732    6.23455384347210
H        -2.33027403892226   -2.36564577438187    6.03216118772068
C        -2.13934140020240   -0.50614186660002    4.97437062872137
C         1.51412972012746    0.98511817114081    4.88229163901138
C         2.64674370988428    2.97866174730221    4.45508983941649
H         2.17289518112522    3.53337682245664    5.26980820938075
H         2.82408071772328    3.62881510394698    3.60129324456431
H         3.58429994052512    2.55163856750102    4.81644951021540
C         2.59515069716866   -1.49395109265108    4.54059851722605
C         4.29597350586219   -2.97244789805065    5.17385920154634
H         4.83294723249005   -2.79425725672616    4.23924157832943
H         4.37158018887965   -4.01563525706962    5.47035702237058
H         4.71219489788096   -2.32233304666430    5.94642951049144
C         1.06904455454841   -3.60170702854896    3.31647960076626
C         2.53476029123507   -4.00454195947545    1.53817219677614
H         3.13395909711201   -4.64178202658510    2.19213050362768
H         3.17160277225380   -3.40826359904158    0.88945197814019
H         1.87073508605059   -4.63678294986937    0.94496223466784
C        -1.75856847910252   -3.81861708477674    4.04395411136726
C        -2.17458423254591   -5.27817896260474    2.24742561480050
H        -1.57593315803233   -6.17143382183581    2.43728476027409
H        -2.27994589464103   -5.11527505861484    1.17685154205671
H        -3.15180796736366   -5.38817184173480    2.72172441977074
C        -4.08972038416687    0.84609612267466    5.47106461733593
H        -4.87973112505347    0.63978173042102    4.74233065291618
H        -3.49035748758362    1.68893296499469    5.12323896591011
C        -4.69524572509285    1.14145646682345    6.83531014784919
H        -5.24348862040412    0.27518115629682    7.19576047946979
H        -5.37542953867039    1.98477874906474    6.75796301350662
H        -3.91531245727741    1.38357182704326    7.55207510815557
B        -1.66389214117409    3.61429612074566    2.77931638442600
H        -1.85242756305171    4.72926250301296    2.44676906142200

