80
CSD_code = VOZYEQ | q = 0 | S = 0 | Stoichiometry = C30H38BIrN6O4 | MND = 6
Ir        6.84918403340529    4.11510233904686    9.45407435577694
H         7.20764233469616    5.59613371451836    9.49854632561286
O         4.27578746603780    4.73524916891601   12.42538492544075
O         4.36708347926240    2.93080756371611   11.10727586590109
O         6.77042964334503    4.93896671944587   14.77292461428365
O         5.90994201129676    3.04538196705636   13.94334611190518
N         6.23363801235446    2.05586361913536    9.30652889869554
N         5.50262372799198    1.67743642344045    8.24990874065512
N         4.86331334569205    4.65541814727982    8.75163961420347
N         4.26565195844687    3.80623962965405    7.89615636022700
N         7.18425022328637    4.05479899963649    7.30441082292008
N         6.31084336952175    3.34450197072621    6.56920980143460
C         6.37886007331553    1.00496444337490   10.10614944502663
C         5.72949909708778   -0.09207378297786    9.53285411164598
H         5.66794814180796   -1.08592069779114    9.92848927444639
C         5.17876202462813    0.37544040699747    8.35492367160871
C         7.08489825063767    1.03444419670008   11.41217181781448
H         7.86622089771417    1.79044993341488   11.41236809774971
H         7.51228048998830    0.05692287988891   11.62936955549777
H         6.38358258908677    1.28855327826073   12.20623739976224
C         4.38036939702730   -0.37152945389810    7.34765648365560
H         3.38194307379202    0.05221021829675    7.25061508554699
H         4.29162745639337   -1.41027018376334    7.65558624463214
H         4.85786609144489   -0.33403398122467    6.36975374700487
C         3.97731047516816    5.58558968435966    9.09909369237975
C         2.76219232049518    5.30879933497741    8.46372926585530
H         1.85082999147136    5.86669180681709    8.54276043151171
C         2.98462374249234    4.17239868118662    7.70887739107467
C         4.27426847742900    6.73719773928728    9.98885694715406
H         5.33546161793745    6.96928110003457    9.96592326907050
H         4.00544628265718    6.50713661246045   11.01901667855804
H         3.69893182453481    7.60402716027281    9.66979197916733
C         2.02670413943152    3.44114614673991    6.83836994862880
H         2.35558455537694    3.45711348258560    5.80030312915949
H         1.04878940240885    3.91135849530513    6.90254235794635
H         1.93910072546389    2.40114640355033    7.14902007635795
C         8.08323253393830    4.58546519311472    6.47914594781360
C         7.78717332909595    4.18968461899679    5.17268789701113
H         8.32359833807984    4.44637996731581    4.28191857864939
C         6.65296804826923    3.40530099685399    5.26945294051294
C         9.19268839874725    5.47654970124322    6.91169044373656
H         9.14375315159898    5.64590574688644    7.98396284023482
H         9.11253117013779    6.43383613163622    6.39859840412376
H        10.15594763633910    5.03948862127711    6.65062627188754
C         5.90973990921144    2.72903382194369    4.17437501585485
H         5.84201977786575    1.65784800471337    4.35580692769699
H         6.42580684559834    2.89531301547700    3.23240468843051
H         4.89787965141656    3.12289945466447    4.09401711918059
C         8.65501083574142    3.66965609974355    9.99649040859622
C         9.32032165961966    4.26177633650120   11.12942983885855
C         8.62579433892626    4.57934833955715   12.33282144048023
C         7.20231845181313    4.30867696331475   12.47546059141332
C         6.36712619752160    4.14025065969049   11.41933834779341
C         9.48981005791282    2.77217231506809    9.11940491309927
H        10.20510825723963    3.40777958244592    8.58799319217137
H         8.86564314403613    2.30046171922294    8.35931917556936
C        10.26605561282804    1.67226008529953    9.85269275066790
H        10.81232219502522    2.06751918609906   10.70459124576366
H        10.97551523268666    1.20796064641282    9.17052347470469
H         9.58662877676473    0.90263044849141   10.20598502485335
C        10.69616890860721    4.55872223207484   11.07116514794478
H        11.23058160955866    4.38862622209480   10.14930617364348
C        11.36968916676779    5.12650524212047   12.12695935891806
H        12.41932789196224    5.36353797775919   12.03416696974945
C        10.69098704231577    5.39658247346989   13.30834256351575
H        11.21143395615233    5.83635597115495   14.14579970736485
C         9.34379653227944    5.11990644926014   13.40261806631390
H         8.81910753586732    5.35863217293573   14.31316035984285
C         6.62822587351865    4.18177990899882   13.84883449194189
C         5.17892374491518    2.87514341670401   15.14853778813555
H         5.82654381633420    3.04063990140152   16.01186437778629
H         4.80189649428354    1.85504214054490   15.13969022910270
H         4.35454568097568    3.59099769793878   15.18017910598109
C         4.92257641149938    3.98826575597718   11.72666370399056
C         2.97743751010048    2.75098527808512   11.30236858787805
H         2.73846027212161    2.75792330415910   12.36822922065214
H         2.72836769545896    1.78861587442140   10.86012588920138
H         2.41776041912773    3.55185868290634   10.81157220057821
B         5.06182314798547    2.69483577733274    7.19505687269879
H         4.40796199661982    2.17610169725288    6.36185516734487

