64
CSD_code = VUBDIH | q = 1 | S = 0 | Stoichiometry = C26H28N6O3Re(1+) | MND = 6
Re        0.25913027537980   15.25085598003981    7.84259654819221
O        -2.00483556884003   17.20312589519170    7.03977643322779
O        -1.15689457845033   15.30000112152955   10.59371358183790
O        -1.30652801217415   12.80742393679306    6.77722591537028
N         2.02928411945213   14.03035527384826    8.33313876887713
N         1.55564457343399   15.38663149667469    6.07327704511415
N         1.64562111693683   16.82680400587258    8.61485933047979
H         2.09677026689799   16.47740500288113    9.45854176872947
N         3.12000991455806   18.61966747085116    8.82258061493423
N         5.96062618250084   18.43808159391454    8.68156756572601
N         9.00548626152420   20.61633825686190   10.57968348543820
C         2.17392311996371   13.16111833415095    9.33673056054011
C         3.43186900470511   12.68404653608189    9.70668912612976
H         3.51449683490979   11.99280578379892   10.52943446860361
C         4.55190798745774   13.09688055603634    9.01430383151748
H         5.53465902332816   12.74734038183534    9.28825256275901
C         4.38619333021461   13.94728440334850    7.93391861942596
H         5.24319029190723   14.23452142758391    7.34931133925124
C         3.10871813004047   14.39409485650997    7.61034486281569
C         2.85140825350710   15.20337526524453    6.40431061336275
C         3.88168654803424   15.68249727612395    5.60155788752947
H         4.91250350470717   15.57832075889732    5.89545745218518
C         3.57205026205810   16.29956941266589    4.40066301642727
H         4.35459874345474   16.68917339259493    3.76856228403820
C         2.24797402655215   16.36662236450102    4.01676544074450
H         1.96827226587794   16.78451706302954    3.06342304714545
C         1.25403832100377   15.90076473044323    4.87809225221299
C         0.97366170573058   12.68192530123990   10.08154572839521
H         0.75563373372564   13.34702831064406   10.91713048160624
H         1.15979490299758   11.69138577621660   10.48853148213093
H         0.09639969761990   12.64385130215592    9.43794169800822
C        -0.16946961380061   15.97213440565922    4.43708366492406
H        -0.78800330230852   15.25284616153003    4.97101194606685
H        -0.23210731434669   15.77262639373186    3.36975943405158
H        -0.57475101406580   16.96933309364433    4.60648553725117
C        -1.16297781554851   16.47916276154710    7.31592085617397
C        -0.64721781367811   15.24362371178862    9.57357326399960
C        -0.75068334255890   13.72085942161257    7.17688405011024
C         2.11592962907824   17.96180951593572    8.21122930296566
C         1.47747800392779   18.61828251306084    7.02336665405229
H         0.57090728352222   18.07817855505203    6.76386976659468
H         2.14411407681262   18.62136224544228    6.16181168158677
H         1.20397470348433   19.64379558122526    7.26256707368278
C         3.89014577154911   19.66650691682298    8.17571392091044
H         4.13770216380119   20.42537266406381    8.92416911579880
H         3.32911660918299   20.14299330258707    7.37715706303426
C         5.19453151183654   19.05472459840290    7.62313366002700
H         4.94341286929939   18.28827161144003    6.87770766963209
H         5.77794623102278   19.83400225971454    7.13836211652489
C         5.17602818082153   17.46165477233746    9.39622623284629
H         5.76714180660833   17.01919076041982   10.19650778601694
H         4.91309855456409   16.66271252073115    8.68818199728743
C         3.87612313789835   18.08100346755999    9.94022683586955
H         3.29937346770651   17.35435225399262   10.51302034216405
H         4.11556476109710   18.91241780940443   10.60926148112758
C         6.94241815899238   19.17938650262633    9.34015321724890
C         7.84695450446034   19.95135066171014    8.60340062862581
H         7.79646851605107   19.99756762293184    7.52718589156198
C         8.84329298219378   20.64106382515467    9.26818804474954
H         9.55462446639199   21.24222281631196    8.71888030624835
C         8.16472964385264   19.87959075046105   11.27944305622319
H         8.32101928515941   19.87735080238641   12.34972545187322
C         7.12614082989069   19.14961118876464   10.72438683641600
H         6.47997882803148   18.58602526439366   11.37847730156492

