58
CSD_code = VUBJOT | q = 1 | S = 0 | Stoichiometry = C20H28BrN8Pd(1+) | MND = 4
Pd        2.54141204250304    9.03164994938132    4.29103843879868
Br        3.98130695642481   10.29615114905308    5.70624869058205
N         5.12434383536309    7.97253070023386    3.21117045643681
N         4.47663026308043    9.75451430157705    2.12850902557151
N         0.81314728872771    9.06238205904062    6.88027628953616
N        -0.43190059436981    9.37009209880839    7.28267327091422
N        -0.22077792708272    9.72085082047415    5.14590494769729
N        -0.07523022968599    8.89185689986398    2.94699692775579
N        -0.13630883870492    7.24057970857222    1.52956409066953
N         1.06264209695065    7.29166709940333    2.13749143579676
C         4.12716170921193    8.86033997219306    3.06639753706139
C         6.15065383011913    8.29139434526713    2.34041275259812
C         7.38683799192140    7.71259021454389    2.08694357645177
H         7.73011341613371    6.84197883596382    2.61901900466134
C         8.18016722502128    8.29712609501277    1.12090830528221
H         9.14738988251469    7.87214338764702    0.90497115079111
C         7.76028678344843    9.42417900792736    0.41791459565670
H         8.40867217980749    9.84957799483997   -0.33137831522548
C         6.53477334644716   10.01042020587010    0.66072930680059
H         6.23012839208724   10.88170115569604    0.10562575844294
C         5.73031558640027    9.43722056188354    1.63637988484872
C         5.10375759941453    6.93840350415372    4.23933442409495
H         4.08519126987541    7.00451957867862    4.69396184316140
C         6.14262468121365    7.23940973453101    5.31726301134516
H         5.95903259873638    8.21320183876952    5.76477719373673
H         7.14503340553986    7.23708262016675    4.89927444014799
H         6.08991900346562    6.48380696378049    6.09575987283474
C         5.29747870793142    5.54441873116583    3.64509240336225
H         6.34343345466647    5.35805645341500    3.42233934026387
H         4.72598727598321    5.41978591940165    2.72852145575911
H         4.97254678576410    4.79544685859393    4.36193303284172
C         3.65734347437954   10.91850048533496    1.81938782688280
H         2.77756024295457   10.84758037040100    2.50135413076083
C         4.40500080791282   12.20668711186806    2.15246498119141
H         5.27017812797320   12.34075892581371    1.51125446495278
H         4.74000280112271   12.18598707082753    3.18760918895445
H         3.74377897737619   13.05866620693388    2.02123542591513
C         3.16460781420524   10.86948100482580    0.37539122702389
H         2.62620981732002    9.94199074520244    0.18474908030414
H         3.99392184830115   10.93390845188367   -0.32239894428212
H         2.49548232077171   11.70426714415746    0.18621834563717
C         0.98833176759899    9.26467305335808    5.58093374409860
C        -1.05638394164462    9.76574246213411    6.22694929524407
H        -2.07595345008881   10.08865070361891    6.20138604895127
C        -0.47636674248209   10.01893467415226    3.75983139522326
H         0.10692323406566   10.90929363017866    3.46400420514786
H        -1.54179623670304   10.21536663834418    3.61045151724583
C         1.14883190994814    8.28811536345801    3.01483309170975
C        -0.82216746924628    8.21058759740477    2.02890414016997
H        -1.82834010387742    8.45182680656751    1.75659590350897
C         1.78245718094168    8.58019729763756    7.82424171538332
H         2.54678327929867    8.00679558571666    7.29277527842638
H         1.27717431424494    7.95729065391440    8.55949856995243
H         2.25941925706075    9.41983211978480    8.33372387955107
C         2.05971920270837    6.31146471098443    1.81233090466351
H         2.32418395499010    5.73720030946410    2.70158677681228
H         2.95118184383871    6.79798586097430    1.41251856963237
H         1.63584574791870    5.64853624902258    1.06101508798523

