65
CSD_code = VUBJOR | q = 0 | S = 0 | Stoichiometry = C29H29Cl2NOP2Pt | MND = 4
Pt      -11.00739102748706   10.64614118003613    5.09693165030851
Cl      -10.12674956535431   10.32437969742053    2.99175321782228
Cl       -9.77009036876783    8.97056346575836    6.06870003728299
P       -11.70521514964943   11.33327741223757    7.12941467416868
P       -12.10741066663994   12.22801143752364    3.90566847648105
N       -13.33104825738953   11.75447307774074    7.23121727640284
C       -14.20445994394749   11.50627128479251    6.08999577848554
C       -15.54404102577262   11.02911287156974    6.67514256634313
C       -15.21196847925722   10.67442762312462    8.12482452117648
C       -14.12139010751556   11.68912556563778    8.45156895163599
C       -10.81537401421184   12.90540201788654    7.34819054686010
C       -11.38677425527473   14.04997955469813    7.88905790246382
C       -10.65592149945314   15.22462789772491    7.94211698804620
C        -9.35858860427099   15.26026231650568    7.45646662467950
C        -8.78525912488807   14.12050929658243    6.91309181820053
C        -9.51286280739887   12.94697181651989    6.85492883706460
C       -11.34616802600826   10.39279371182472    8.63920169797372
C       -11.77759204122126    9.06972572576113    8.67014380601042
C       -11.51706255633393    8.28401710014603    9.77547707978076
C       -10.81903108432070    8.81475240440670   10.84972194642596
C       -10.38099288023853   10.12811821223596   10.81650551884430
C       -10.63966420462603   10.92114444087423    9.71157759537489
C       -11.06686409224736   13.53350744615358    3.21212068248283
C       -10.74123258435831   14.62811352944337    4.00556865580022
C        -9.88456427290101   15.59887922973519    3.52026256627157
C        -9.34673717271115   15.47780458596681    2.24903242486483
C        -9.66715994902687   14.38418278293601    1.46077966184803
C       -10.52229719519669   13.40803286169883    1.93949212202474
C       -13.13084287959656   11.60418114157577    2.53810978690135
C       -13.73103863264384   12.49995938896273    1.66075998563164
C       -14.55731187033425   12.02655133822942    0.65782947720433
C       -14.78915789398108   10.66511830346236    0.53531607854472
C       -14.20000870411543    9.77371124823148    1.41774079764146
C       -13.37389503506389   10.24257325439333    2.42339516727043
C       -14.35973890970271   12.77345355539538    5.24177093349813
O       -13.14574758616729   13.22577247962291    4.68072257509437
H       -13.75257955313247   10.73936618877357    5.43922180923632
H       -15.94887983008576   10.18622604929136    6.12016625510968
H       -16.27051563228555   11.84275823642449    6.64637388558720
H       -16.07324946006059   10.74937350709803    8.78461409414520
H       -14.80187493742522    9.66595915826417    8.18631502266793
H       -13.50024621168267   11.40588578048300    9.30188053343407
H       -14.57103771050271   12.66993641535385    8.65190422472994
H       -12.40206379733130   14.01738620429667    8.25662835291068
H       -11.10045364431023   16.11670290779956    8.35995206175917
H        -8.79447053346307   16.18048845178003    7.49709332159768
H        -7.77731201003027   14.15202217359890    6.52745766071963
H        -9.08154409536132   12.04533420903701    6.42691143602197
H       -12.28979809038259    8.66385541514677    7.80763552276544
H       -11.84250909930059    7.25465024693303    9.79725475292780
H       -10.60602134587592    8.19852287169062   11.71071817902743
H        -9.82840362565872   10.53502608244352   11.65075030220395
H       -10.29010810172718   11.94380465298411    9.67672614748362
H       -11.16445198462393   14.71255091859215    4.99515131534527
H        -9.63085752905992   16.44781549629848    4.13845194991415
H        -8.67333660629376   16.23438413846101    1.87340291315219
H        -9.24441753949339   14.28784417273995    0.47164884009678
H       -10.76003587553190   12.54239176813573    1.33904422055625
H       -13.53950680224069   13.55929302516239    1.76935971139409
H       -15.01851723416789   12.71806864355515   -0.03223033472036
H       -15.43032049578542   10.29859395033961   -0.25287047876406
H       -14.38185169098424    8.71403379701355    1.31829427834249
H       -12.88777845375596    9.55774397160753    3.11033002485534
H       -14.71848664049040   13.59976320330485    5.86361946386636
H       -15.08791900089306   12.57948910657245    4.44349610673002

