91
CSD_code = VUBLUB | q = 0 | S = 0 | Stoichiometry = C45H39IrN2O2P2 | MND = 6
Ir        2.86887298847666    4.29862650473479   11.94552368997838
P         2.62203774379623    3.46156893376827   14.12320164077051
P         1.21360380158190    3.05034206839484   10.86129753570282
C         4.70048885022936    1.81309459692816   11.08135553857803
H         3.86515615322576    1.59001861919625   10.42874643958389
C         5.77128828087128    0.95401642703384   11.17573187028301
H         5.79779366093459    0.04114878130135   10.60379540438049
C         6.80701294845064    1.30283913648964   12.03979948064242
H         7.66256120205727    0.65398177786977   12.15839466735907
C         6.73657793099072    2.48010010012756   12.74081845477401
H         7.52871835105260    2.75263226048667   13.41635108356627
C         5.60937131011564    3.31717569357608   12.58334881789271
C         6.57118491749013    4.97374952555711   14.05299745984436
H         6.73851774162835    4.33291440023823   14.92317621035006
H         6.32125229325335    5.97448075084768   14.39602615634361
H         7.49479401713096    5.03064495717848   13.46858168071561
C         4.36557476563720    5.44512828360382   12.96908387099547
C         5.59908389686976    6.47709371853981   11.17095833799141
H         6.36932831326531    5.69614800565974   11.17578429142750
H         6.06764599410377    7.44134799103977   10.97734028876749
H         4.88015663087066    6.25247559619800   10.37561649233455
C         3.84004335732363    5.86371991809803   14.32846290551246
C         4.10218216205060    7.10388247434474   14.89351906711670
H         4.63310594341905    7.84280789716991   14.31453353061421
C         3.66449890058264    7.39550095874578   16.17464027240610
H         3.86557983686628    8.36883249230649   16.59891128567561
C         2.97441948695552    6.45139428753342   16.91571242944174
H         2.64408645031761    6.67960561864140   17.91896121087321
C         2.67711605101187    5.22156262762806   16.35471021920811
H         2.10281123619467    4.49170363977469   16.91046013807957
C         3.09596898890417    4.93660059353142   15.06375116330083
C         1.08078287236281    2.96507805666548   14.96395754446912
C         0.05859763272871    3.91154533087484   15.02597133155098
H         0.21593332353352    4.89204206498882   14.59996703529103
C        -1.13475017247193    3.60718490498247   15.65079264400479
H        -1.91681951671748    4.35069936188716   15.70375536587890
C        -1.32698057175434    2.35433827374689   16.21174021849038
H        -2.25812342597685    2.11792822512378   16.70623096689146
C        -0.32171055441805    1.40633548545010   16.13802562342160
H        -0.46678822521820    0.42746912535003   16.57241240771008
C         0.87711181882954    1.70557197591934   15.51492578512125
H         1.65611482588943    0.95757471990084   15.47083246192623
C         3.77696589352360    2.17983106880132   14.71703942216142
C         3.77261369607314    0.95186126386684   14.06081158364794
H         3.05011223601283    0.77921604681467   13.27382495319072
C         4.67819813093101   -0.03184525956785   14.40762345146613
H         4.66965294992224   -0.98070753472263   13.89057600994731
C         5.60326174015735    0.20506637803299   15.41147723396373
H         6.31872842133168   -0.55886236153189   15.67826132013479
C         5.61031458082006    1.42254776418222   16.07126649474483
H         6.32907000093177    1.60548069075564   16.85759108998533
C         4.70284194633963    2.40889173176266   15.72704174447625
H         4.70925692621307    3.36055477842864   16.24097242542070
C         0.23563514495360    1.81228187283797   11.77310489174166
C         0.76418070590307    0.52979745014508   11.90535947256610
H         1.69256449640502    0.28644037653845   11.40193567818206
C         0.09799039153581   -0.42851636340510   12.64390846203810
H         0.51185313822484   -1.42240691773294   12.73922569062529
C        -1.10473182671243   -0.11458538440961   13.25690363709938
H        -1.63186035002774   -0.86522123876633   13.82685075278376
C        -1.62909242443864    1.16138884584941   13.13899270678876
H        -2.56561247384396    1.40690061733756   13.61763263207031
C        -0.95763375126458    2.12782514472428   12.41209456976642
H        -1.36261253062426    3.12655950539638   12.32900246276334
C         1.34472188414232    2.25291791863760    9.22126958986476
C         0.47397179893172    1.26150737959704    8.77913380009565
H        -0.30833963167568    0.89575969502789    9.42992641137705
C         0.61158104874421    0.73903870491506    7.50530055757162
H        -0.06818268496870   -0.02963703335549    7.16637489558885
C         1.61342182160411    1.19768321567790    6.66560945429220
H         1.71662619290422    0.78390790622924    5.67328425777798
C         2.48261348147099    2.18490846300096    7.10123914218789
H         3.26541899588144    2.54312339964530    6.44884632738335
C         2.34907565734975    2.71007224704327    8.37331143584354
H         3.01965344211732    3.48030734648862    8.73033894181018
C        -0.01362031866923    4.35058056726104   10.51989708919138
C        -1.07164268907210    4.25853573073145    9.62780228682053
H        -1.22770257540936    3.35154208719799    9.06011723571138
C        -1.92097277158299    5.34048709097473    9.46415935425467
H        -2.74173658727901    5.27592987688390    8.76440555879974
C        -1.72201377478930    6.50355233352516   10.19333900987477
H        -2.38991465226977    7.34191630962693   10.05821687191592
C        -0.67397756910978    6.59314399026224   11.09227573316128
H        -0.50766790438324    7.48839817112159   11.67306816685246
C         0.19557834419278    5.52086578628340   11.25330614215754
C         1.34203745097932    5.58745681531533   12.22807054494911
N         4.60756788506372    2.95144239928227   11.75998013592313
N         5.46897962183682    4.47503393357593   13.25869315854008
O         4.96285739159813    6.60080867598764   12.41213225221248
O         1.26279722167180    6.34581194945456   13.17513103979472
H         3.16376966593085    5.03410040283591   10.62217090121601

