88
CSD_code = VUBLOV | q = 0 | S = 0 | Stoichiometry = C44H37IrN2O2P2 | MND = 6
Ir        3.18906804853842   -4.27023543826627   -4.03389411298323
P         1.42560296219631   -2.83173738412403   -3.32238330019651
P         4.34801998027487   -2.83488250371794   -5.48679934906558
O         2.41010771574879   -6.91862213696358   -2.72820169772687
O         4.89605711403073   -6.53920388586962   -3.70155360225641
N         4.15757752028111   -3.80039681997911   -2.23284802573895
N         2.38446028773416   -4.99962141558041   -1.39055904489368
C         5.26614571057160   -3.09127300248385   -2.04724621616476
H         5.78016094915452   -2.77593742888488   -2.94536173544310
C         5.76047385290270   -2.75313196916984   -0.80936984286921
H         6.66199929280534   -2.16950129947686   -0.72224075874274
C         5.05513012136240   -3.18320630078552    0.31221949632992
H         5.39506896381745   -2.92773589482143    1.30506806143985
C         3.92750324883146   -3.94615172039182    0.14510058924980
H         3.37386526362066   -4.28986612880193    1.00141948149176
C         3.48996782105505   -4.26803203301204   -1.15740263432063
C         1.71653737320310   -5.65728665651538   -0.28860909039127
H         2.40977681080940   -6.27176097728004    0.29273115207442
H         0.94535702250355   -6.30498646854867   -0.69719938652326
H         1.24898031725377   -4.91821532430769    0.36774329629265
C         2.10845726861608   -5.56035941436710   -2.75594080687384
C         0.61924159519617   -5.38105635789522   -2.97127556218112
C         0.12435260921014   -4.08411368148228   -3.15765622817715
C        -1.23329220794062   -3.85511441719991   -3.31564453495706
H        -1.59606908893231   -2.84764374524185   -3.47307075854754
C        -2.11396314137107   -4.92478790997719   -3.29249029035794
H        -3.17337254529774   -4.75264701742742   -3.41665241668016
C        -1.63048827921864   -6.21279777756948   -3.13477590803680
H        -2.31678703510560   -7.04739571448189   -3.13803470517945
C        -0.27341549616183   -6.44274533335312   -2.97310882238104
H         0.10919692548981   -7.44545826831226   -2.86074790947707
C         1.46124839523055   -2.02111266286517   -1.68905887596547
C         0.55570893830348   -2.32362524313013   -0.67859393331097
H        -0.25679613553039   -3.00934885559543   -0.87587691685834
C         0.69851130735249   -1.75104299888216    0.57290022516159
H        -0.00844449224107   -1.98872382119950    1.35531142592060
C         1.74474022593417   -0.87981457471843    0.82811934027605
H         1.85606407536636   -0.44114825140628    1.80888218058058
C         2.65115458687469   -0.57542670294320   -0.17473406531254
H         3.47221614255351    0.09930152241386    0.02096932093651
C         2.51278050956583   -1.14639148974133   -1.42503424111085
H         3.22934907000893   -0.92269347612338   -2.20499925486863
C         0.66265118965873   -1.56340064840552   -4.38196160480249
C         0.35154631920152   -0.27319769297773   -3.96876183719369
H         0.48456026039115    0.01273061487400   -2.93401110560903
C        -0.12955124427118    0.64580219681281   -4.88605302618665
H        -0.37207731021663    1.64791144369899   -4.56172543828818
C        -0.29724211792201    0.28768207807266   -6.21310266436142
H        -0.66678455374404    1.01207595904067   -6.92405069974977
C         0.01247646918682   -0.99861817596602   -6.62927660257336
H        -0.11147315195590   -1.27919070919278   -7.66483262532047
C         0.49508566276700   -1.91791917483576   -5.71971474898910
H         0.75959528299312   -2.92049988590478   -6.02930036123999
C         4.69624499409332   -5.54850356876710   -4.39162748476445
C         5.70821931713162   -5.18974398382594   -5.44604694490783
C         6.67574058635207   -6.11155334998228   -5.83577891858963
H         6.69360707823488   -7.07790915036867   -5.35328530444970
C         7.58486680897744   -5.78926228394238   -6.82661409946523
H         8.33088453638984   -6.50991118266555   -7.12849412381132
C         7.53907153603672   -4.54631605196000   -7.44159192638309
H         8.24619286837174   -4.30292355802443   -8.22140754020169
C         6.58534372136443   -3.61707553057926   -7.06186094703638
H         6.53733740508187   -2.64983400020700   -7.54493153808661
C         5.67778464551077   -3.93409378649796   -6.06011011411932
C         3.65835958739704   -2.30553652296350   -7.09460495768771
C         3.14947465421761   -3.32591167233039   -7.89605692252569
H         3.20033376169189   -4.34533721583206   -7.53685237114279
C         2.57807156422195   -3.03556162517891   -9.11885547855312
H         2.18595729248371   -3.83268640896133   -9.73381344152303
C         2.50296046045138   -1.72128065808387   -9.55405868417207
H         2.05196695198479   -1.49090896497945  -10.50830109854627
C         3.00885145259372   -0.70487296566898   -8.76332542888103
H         2.95649437672692    0.32031992826848   -9.10086481148841
C         3.58659659764060   -0.99131427004553   -7.53800212619451
H         3.98381531594455   -0.18544307527392   -6.93812485506488
C         5.17927817233808   -1.30992032527967   -4.93340902206115
C         4.33917574669255   -0.28692011087958   -4.49373446289937
H         3.26559070212062   -0.41714613346937   -4.57830926329115
C         4.86666880726990    0.87421457093072   -3.96265453807355
H         4.20786004959002    1.66337910114499   -3.62900339920415
C         6.24116236751854    1.01925054977308   -3.85072871908692
H         6.65653240750202    1.92355584503294   -3.43104497170075
C         7.08056998373725    0.00088987570282   -4.27068850838987
H         8.15137795773768    0.11112239403169   -4.17711835801248
C         6.55587388306718   -1.16306212506018   -4.80626119180476
H         7.21593862746531   -1.95968043729673   -5.12135074425128
H         3.35730627474124   -7.02860737068930   -2.95046721885771
H         2.38984909664601   -4.82496096082706   -5.23973031262264

