87
CSD_code = VUBLIP | q = 0 | S = 0 | Stoichiometry = C44H37IrN2OP2 | MND = 6
Ir        8.69480456401403    4.96561874343684   13.32368669599443
C        10.78530235537462    7.36867239658463   11.63192516184484
C        10.28104303795597    8.66345749247678   11.73673780778385
H         9.88568155795450    9.00287399856775   12.68684980490963
C        10.30975092109136    9.51535082018701   10.64931758253570
H         9.91971670300893   10.51939842621591   10.73905963404068
C        10.84314163088899    9.08214449735841    9.44581929540097
H        10.87197508862342    9.74927961393277    8.59704477256782
C        11.33887666228055    7.79427793590184    9.33297462546737
H        11.75534786134429    7.45577411888585    8.39582484594348
C        11.29949305971764    6.93422146484740   10.41555053319683
H        11.67684617341790    5.92549271215189   10.32292358650409
C        11.46467086017702    7.21559462363938   14.36170294282183
C        12.42580456990425    8.18391589718119   14.08599908212590
H        12.67384280039852    8.42758100910040   13.06179639754583
C        13.05928301824910    8.84334424804361   15.12414106074704
H        13.80646605844527    9.59297797472690   14.90570455282113
C        12.74011898496771    8.54586973497380   16.43915348933765
H        13.23740710093598    9.06556523719818   17.24503247736810
C        11.78248985684681    7.58428351222485   16.71803485901516
H        11.53060882710900    7.35279842377134   17.74257005406004
C        11.14704168405583    6.92164343858485   15.68384483894858
H        10.39504103299395    6.16985822481516   15.88228155656173
C        11.84433052426833    4.96229979722048   12.69699562994480
C        13.22208271288341    5.11771251560679   12.72284613848560
H        13.65785639255206    6.07280992634568   12.98111773982953
C        14.03649228305519    4.03757564748708   12.42418180716968
H        15.11052250707528    4.15281775532383   12.45103660566942
C        13.47953218472782    2.81163703685941   12.09192517431800
H        14.12302004461471    1.97523728112434   11.86041843614060
C        12.10511415657536    2.65676296856115   12.05704764158287
H        11.65357674223676    1.71084331562106   11.79625021883112
C        11.27664752460768    3.72809439890163   12.37086850790942
C         9.77769341015797    3.58032454810529   12.34320880241314
C         7.59302848792106    7.65393769514413   14.78446714847632
H         8.62438240604781    7.97656542970548   14.71552943191598
C         6.61820744692677    8.48563973632479   15.27973884788467
H         6.85726706466732    9.48425830941429   15.60674316573876
C         5.31089539727214    8.00097673681837   15.34157922887940
H         4.51799442027769    8.63339117028248   15.71534476651885
C         5.02602498425229    6.72126883219734   14.93238502266861
C         6.09867655042412    5.92891274187085   14.44246772850889
C         6.95478801286215    3.76719760052543   13.53267821525530
H         7.00751957462694    2.92824208267794   14.24607729506979
C         6.46519422750148    3.22498737876707   12.21838370828812
C         5.83460786736615    1.99444397804252   12.10217345761461
H         5.74502329917152    1.35578924174785   12.97005370740559
C         5.33776191212115    1.57344385821549   10.87981416788497
H         4.85937035559832    0.60778517384310   10.79819114670144
C         5.44933404401997    2.38219463192171    9.76081089319059
H         5.05621067186487    2.05100018860849    8.81033832926590
C         6.08567267880284    3.60804978855312    9.85455650464133
H         6.19977067846980    4.23334657890019    8.97866060260078
C         6.59625792410410    4.02042383794316   11.07628145688548
C         6.26419696406654    6.81916356311180   11.47618485712351
C         4.90645747080516    6.53692301566487   11.39267568488644
H         4.57984523187627    5.52896403405242   11.17405047178698
C         3.97570189969640    7.54194816694370   11.58908470706915
H         2.92049089871796    7.31828742685736   11.51759851309475
C         4.38977246996746    8.83086335735580   11.87884167239901
H         3.65944079639991    9.61046627772617   12.03837793628164
C         5.74221272900186    9.11848955181001   11.96665759028270
H         6.06902416394565   10.12264889943227   12.19579870527466
C         6.67318235101810    8.11716371998148   11.77102270601416
H         7.73165604162644    8.33040990537113   11.84590334363130
C         8.23204717230893    5.84827729607510    9.68978731288233
C         8.00075606556601    7.00693066981345    8.95864567706326
H         7.37496011724691    7.79130747100016    9.36050540658841
C         8.56174138853719    7.15681355583965    7.70235942026706
H         8.36990457605893    8.05751525993494    7.13671310657949
C         9.35823769894517    6.15899826279195    7.16847380360239
H         9.78830930717373    6.27885121985288    6.18449011254735
C         9.59972391513325    5.00503018433560    7.89765996976627
H        10.22052858880830    4.22299268473774    7.48492895303207
C         9.04455968177333    4.85049486609147    9.15259796368589
H         9.22059690781483    3.94737243251340    9.71971187841851
N         7.34833069807703    6.41495440907937   14.36802645062996
N         5.90434425972217    4.67218991301915   14.02001267550176
O         9.28584395773904    2.68350106776976   11.68501982398665
P        10.61241685423814    6.25239783415895   13.06368257160872
P         7.55572326293400    5.53622914163419   11.35434928015452
C         3.63483167016400    6.16672984789285   14.98510011529710
H         2.94635294243387    6.91974164270598   15.36061164765760
H         3.58526498438784    5.29929571408016   15.64492211918056
H         3.30249317144428    5.86378127026225   13.99138569741389
H         4.98036587931297    4.27864975217331   14.11710866008480
H         9.22037498625697    4.38305285846830   14.65356398097055

