88
CSD_code = VUBMAI | q = 0 | S = 0 | Stoichiometry = C44H37IrN2O2P2 | MND = 6
Ir        7.66836838861718    4.80076531808932    3.71147592646124
C         8.82097925655690    3.25732905458479    3.14372867760800
C         8.32308631152209    1.85807458038947    3.40074712296805
C         9.01992296711759    0.76495226240829    2.89298677268041
H         9.91918373528955    0.94969692700453    2.32286728629421
C         8.56550403921569   -0.51949520010850    3.12146430540318
H         9.10838501287895   -1.36468750563155    2.72378676346319
C         7.41532163739431   -0.72651809114003    3.86898942066777
H         7.06414403414104   -1.73160132343650    4.05341996640459
C         6.71593347581833    0.35090751983396    4.38384245476487
H         5.82300074462981    0.18471020473845    4.96983537192354
C         7.15986420363163    1.64408521785802    4.14184326786671
C         6.29779675723252    2.74384946961175    6.55264845617671
C         5.34324426195472    1.91077411895913    7.12997908832250
H         4.53614990613290    1.50687375540778    6.53461766131159
C         5.41295055121956    1.60583500626711    8.47710801492921
H         4.66742204964817    0.95940255448753    8.91787283495281
C         6.43182451773563    2.12362520345732    9.25980721273565
H         6.48016290770844    1.88222285844095   10.31152916865772
C         7.38452630639943    2.95206499485098    8.69043568627199
H         8.17968999666129    3.35953850671964    9.29713418870918
C         7.31814517367547    3.26074599627695    7.34389890749605
H         8.05312522393150    3.90945752884872    6.88808127389336
C         4.58850427777834    2.83314411161293    4.31985029182413
C         4.23616612234080    2.06841544272972    3.21241380852568
H         5.00215435539585    1.55994824543260    2.64413221047314
C         2.90799674314837    1.94878350667945    2.84271490384657
H         2.64639061963387    1.34587424914603    1.98540555206214
C         1.92014438486556    2.59926222912699    3.56317661405867
H         0.88479937110061    2.50516894956148    3.27047522564979
C         2.26337408636894    3.37183242466024    4.66252644307277
H         1.49609338821262    3.88105683329215    5.22789033267519
C         3.58836678007028    3.49247554961881    5.03489374647070
H         3.85786433284340    4.08879494784420    5.89757441950500
C         7.66988537224919    5.56494493912239    0.58945714931360
C         7.53795182565214    5.51873351813866   -0.79332650648790
H         6.62146912738276    5.14820544524628   -1.23396588600052
C         8.58606934871576    5.93008160075370   -1.59493546300167
H         8.48952860577968    5.89553662241388   -2.67046973994939
C         9.76913016167758    6.35800906265456   -1.01255153875819
H        10.60053151357192    6.64992126527826   -1.63788250499205
C         9.89521143001861    6.41162000012453    0.36374134524082
H        10.82491102903901    6.72903143608588    0.81122866349880
C         8.83815586425097    6.03691000947290    1.18489491050447
C         8.93104686657699    6.16001285303738    2.71022518040112
C         7.29238058914425    7.73804760111356    3.65771782329518
C         6.72248832472272    9.02758029323927    3.76232094065024
H         7.20273648624888    9.87185568862753    3.29815834122994
C         5.53762917431396    9.19263995811997    4.43297814547665
H         5.09125453640092   10.17334548095002    4.51050173631287
C         4.91254477501351    8.08743404020429    5.00722015993885
H         3.98564176381876    8.18253525864468    5.54791887004882
C         5.51274877307053    6.85998872590708    4.84735967399881
H         5.06613630578859    5.96511809083944    5.26027469375157
C         9.30280944877297    8.62257868913369    2.63124857446068
H         8.95407978693061    9.08080025175375    1.69919225753306
H        10.30708401335657    8.23406446839710    2.49055212090456
H         9.33875597274619    9.37758650418586    3.41699346809834
C         5.09002062130762    6.13433892997955    1.65098731166302
C         3.89384271619112    5.85452638781364    2.30776927375819
H         3.75696295318017    4.88819017065391    2.77293958886882
C         2.89030957438503    6.80170920122533    2.36731688021653
H         1.96370247918730    6.57041851777043    2.87273149897095
C         3.07902378913559    8.04760797915149    1.79108628139621
H         2.29833949968379    8.79208114796162    1.84360550830295
C         4.27358589984157    8.33979458804319    1.15516301870574
H         4.42637194435609    9.31379838864845    0.71312162133876
C         5.27804688881709    7.39106741432310    1.08727885819352
H         6.21226548301841    7.62518456433964    0.59463706507354
C         5.79054886737048    3.52287565215495    0.73819015835480
C         6.69087052538461    2.48297674324650    0.51340958239276
H         7.69619756723938    2.56372995473401    0.90399676907989
C         6.30746304606827    1.36695979189384   -0.20310561402431
H         7.01087967880649    0.56360288038060   -0.36603816693064
C         5.01928310884393    1.28088151024930   -0.70919062165976
H         4.71446503274403    0.40770775685580   -1.26735068220073
C         4.12677930965087    2.31897184058503   -0.50441296568952
H         3.12682150076737    2.26038650840909   -0.91052086805320
C         4.50528310514329    3.43748653507619    0.21877391611466
H         3.79945120603814    4.24173338117621    0.37056654788709
N         6.65390481519210    6.67615551713806    4.19408962828903
N         8.46136165399812    7.51862547036142    3.03306728974823
O         9.90207598637084    3.39322658639083    2.58383764263142
O        10.28720768688551    6.10449236090943    3.08679249880462
P         6.32917422975434    3.14488370832971    4.76463164985987
P         6.43246546271960    4.90686784702429    1.73934600673466
H         8.59226617412153    4.93445978341881    4.93559868493057
H        10.55006217769502    5.17721163069305    2.95257584363618

