44
CSD_code = VUBTER | q = 1 | S = 0 | Stoichiometry = C17H26Ta(1+) | MND = 12
Ta        3.28896881589233    8.44913513763363    5.71770893252709
C         1.13625975524713    7.70280518856879    5.89375935172874
C         3.12648417399715    9.22986852227766    3.58257139889035
C         2.68225863761658    9.80071817326326    8.19264884393174
C         3.23010141349021   10.39031668254870    6.97644751332097
C         4.67463372253068   10.41086040152686    7.18369191376548
C         4.94768281706558    9.80655769439494    8.38304836447722
C         3.71927983367266    9.42595454884622    9.00158448673922
C         4.91433256789344    6.59764744525469    4.20760517653512
C         3.81832257336494    5.72129581252117    4.35922324420728
C         3.54829285437926    5.56835827267643    5.73687490671949
C         4.47073225572434    6.37982013921264    6.47048581903383
C         5.33046184509468    7.03013208335663    5.50753661881284
C         5.60634634988126    6.90598694195424    2.92755235632858
C         3.11548662567004    5.01233633258593    3.25513640981585
C         2.57507827978478    4.61200275574098    6.32878779279343
C         4.75434200413181    6.22323426198681    7.93142824173357
C         6.65656239802976    7.65826791426190    5.80387091744567
H         0.98591037704755    7.14538707264587    6.81726209851311
H         0.84971455932977    7.05984586106773    5.06308111819730
H         0.45121727356973    8.55162789389264    5.90351794704328
H         2.44262975187561   10.07958471265104    3.54413158927714
H         2.75798666832892    8.48350618565669    2.88152141555644
H         4.09795031495764    9.57173220493729    3.22462740915012
H         1.63021709937871    9.73787676832476    8.41761931352945
H         2.73415687558983   11.23645406850959    6.51135517541113
H         5.37797804553095   10.90970522231309    6.53366651386929
H         5.92043245716495    9.67707269825197    8.82567011251474
H         3.64032305571410    8.95799933144562    9.96654560808110
H         4.89717821922990    7.03475207389810    2.11249565294706
H         6.25937946809715    6.07358432386811    2.65993489256270
H         6.22193923757593    7.79807051475667    3.00741357770585
H         2.08008001615011    4.80722653762721    3.51499432885063
H         3.60239398030279    4.05648679105122    3.05820204080879
H         3.14144622984113    5.59090208241978    2.33529572426181
H         2.33712501380148    4.86696014475072    7.35808355926215
H         3.00634422041095    3.60949360117874    6.32509926387345
H         1.65497423679066    4.57013527709186    5.74994150884084
H         5.38288908264671    7.02701617255504    8.30847007054252
H         5.27925761757657    5.28149484708046    8.10156975954005
H         3.83413808614761    6.19564607063697    8.51534899999717
H         6.87984483206190    8.46733208731826    5.10827161861013
H         7.44537070817856    6.91129591266451    5.69949146448988
H         6.70049564924516    8.04831323480180    6.81852694775488

