67
CSD_code = VUBXUL | q = 0 | S = 0 | Stoichiometry = C32H32P2Ru | MND = 8
Ru        0.02518435112115    2.53143952942061    4.57074848646356
C        -1.01142116610822    0.14052858452379    1.66355711016690
C        -0.64946054117548   -0.54180957046585    2.98360950745874
C        -1.80935630124782    1.43076537875832    1.84166564007338
P        -0.72533045157390    2.78085412619148    2.48813143268568
C        -1.75344091439766    4.26515819196023    2.26230140391729
C        -3.05502611221790    4.26641704892494    2.75656076358583
C        -3.81719126703097    5.41806494960328    2.70917954811533
C        -3.28168395618770    6.58585158975854    2.18794183718994
C        -1.97764910983292    6.59925105819637    1.72208896862222
C        -1.21375356636113    5.44667036691189    1.76264809163504
C         0.43572155226180    2.92761887762597    1.07994098238435
C        -0.00289873593866    3.21890854972289   -0.20900244417068
C         0.90403028679632    3.28062303406498   -1.24992284671715
C         2.25193986911296    3.05052565367644   -1.01686953661518
C         2.69444679399481    2.76473495198051    0.26321252257569
C         1.78722144635380    2.70723169167850    1.30625662407829
P         0.47875170108077    0.38145444603871    4.12907823545258
C         0.42153360862811   -0.80377915485338    5.52380857701608
C         0.98594962142646   -2.07312772440793    5.44044400206809
C         0.91628800071309   -2.93274007776391    6.52079892366755
C         0.28571848383064   -2.53431820615701    7.68929954073139
C        -0.27940729713931   -1.27294905819308    7.77609318894603
C        -0.21050986125001   -0.41114583918145    6.69585527119263
C         2.16006162936374   -0.01846190873816    3.52227403160189
C         2.48630978666671   -0.38019187258565    2.22093104662816
C         3.81070110898262   -0.55537613148744    1.85705624147185
C         4.82273329864599   -0.36979228982343    2.78271518810905
C         4.50706478100697   -0.01336471444591    4.08511512575660
C         3.18701467556806    0.16470898343208    4.44745445090235
C         0.20274139821366    3.71113548037136    6.47125498272944
C         0.09970151267154    4.59668022661149    5.36409260955331
C         1.24443908267997    4.38909834097708    4.54353967948419
C         2.02114050355775    3.36143807485908    5.11337810023843
C         1.37411790923228    2.93707843633071    6.31322929273995
H        -1.40891847826299    2.08291414840008    4.92906667538642
H        -1.60744347378803   -0.56433794551261    1.07288425327055
H        -0.10855143785611    0.37035946792423    1.09128048929904
H        -0.20312817703710   -1.52428536838121    2.79158408004240
H        -1.56230682743193   -0.69051801087397    3.57420623171467
H        -2.61060049114631    1.28002754693308    2.57054196954201
H        -2.24183885817956    1.74051173395541    0.88438491037814
H        -3.45340239863034    3.36171128175761    3.19363435989207
H        -4.82954572538726    5.41112765789966    3.08699377221515
H        -3.87637638149616    7.48718178172400    2.15553404070362
H        -1.55258817260972    7.51236479178130    1.32977430801343
H        -0.19357783474183    5.45987754526139    1.40154469040241
H        -1.05260970099890    3.40844262726161   -0.38883841035764
H         0.56158157565714    3.50909020437046   -2.24913338555216
H         2.95558483156362    3.09763854137206   -1.83530659971506
H         3.74353834041384    2.58511876083080    0.45026009501977
H         2.11793604385679    2.48287572688778    2.31274525443005
H         1.48936232214244   -2.38028425275701    4.53335581339108
H         1.35779750967785   -3.91694223329534    6.45457320670205
H         0.23815399657048   -3.20842674525853    8.53227631821815
H        -0.77047935708162   -0.96201354375560    8.68703514153139
H        -0.64609334799421    0.58124995903032    6.73589981559074
H         1.71180245780842   -0.53340538726147    1.48534381444921
H         4.05217659690771   -0.83744282284069    0.84195499758461
H         5.85480192350831   -0.50339081303144    2.49278500657156
H         5.29313136354880    0.12652817918431    4.81380820601862
H         2.92882184293607    0.43924137806753    5.46328530821219
H        -0.44385906031039    3.71185121993047    7.34033108814302
H        -0.60111165608154    5.41793643733754    5.27204946572557
H         1.52655015015718    5.00387625072682    3.69649978614847
H         3.01927981446307    3.07464161777361    4.80540560558927
H         1.79823048838355    2.27539924103346    7.06017311169647

