72
CSD_code = VUBYOH | q = 0 | S = 0 | Stoichiometry = C28H40CuIN2 | MND = 2
I         6.19657274479362    6.94030451609835   10.64062386979577
Cu        6.43604933657347    7.22870178040514    8.21209121265200
N         6.69786975148123    6.40503113224509    5.46420191928640
N         6.74572989898099    8.67251453184943    5.73900113114219
C         6.64482410867937    7.45837585795150    6.27822107254354
C         6.83906563816881    6.48328440940085    4.01984112218427
H         6.31612058675181    5.63106791848524    3.57743997304279
H         7.89918146549688    6.40868235133563    3.74403628702832
C         6.25822052204025    7.80091361986525    3.52202307752737
H         5.17656931580593    7.80666651100362    3.67633717271240
H         6.45221035955937    7.92560559271360    2.45717436226182
C         6.89459042357587    8.93416584550507    4.31723887404557
H         7.95930844704216    9.02298686672730    4.06409853024855
H         6.41485793950922    9.89041420244177    4.09193150628721
C         6.61270314412055    5.09229661930493    6.02808577975616
C         7.78353259368942    4.44409470314810    6.42641250340439
C         7.68041444335221    3.15857468697447    6.94050776706618
H         8.57003827068636    2.63707167168529    7.25738933641159
C         6.45117584642578    2.54086778864900    7.06188215720925
H         6.38794654448854    1.54211850614778    7.46674807887006
C         5.30042720475361    3.20505425735650    6.68426515937221
H         4.34394949745165    2.72081621924549    6.80502343411164
C         5.35962612235895    4.48998910238128    6.16279486719423
C         9.13281443814537    5.11751619077280    6.33696296468839
H         9.00070950231156    6.13355375400437    5.95088896675863
C        10.05576411781996    4.36089333721410    5.37906773690728
H         9.60052742488055    4.27299915764033    4.39382745743524
H        10.25879252721219    3.35963338935398    5.74958178152094
H        11.00327911321846    4.88613175691414    5.27806726978267
C         9.76175319385912    5.23399668435760    7.72682328071703
H         9.08456506676137    5.74687286546338    8.40612747689429
H        10.69024493842942    5.79821514203376    7.67288799161738
H         9.98050323412988    4.25402422330489    8.14172339347573
C         4.08799534358043    5.21944200153208    5.79749386716304
H         4.34390031686722    6.21003621750193    5.40845236812219
C         3.31205201862086    4.47096368242435    4.71188062307048
H         3.93006779982077    4.32138850648701    3.82795258769362
H         2.42996590382158    5.03915336701319    4.42399838982137
H         2.98766179927541    3.49708674224564    5.06841757438688
C         3.22617638826943    5.42338730110845    7.04546655514034
H         3.79495929361554    5.93898229776115    7.81639221939010
H         2.89330700994456    4.47156643100783    7.45020476741511
H         2.34938336106996    6.02074360547615    6.80501720872400
C         6.70769144195272    9.81503609961474    6.60023730603323
C         5.47949812323571   10.42571294727968    6.86443712758150
C         5.46541109064061   11.54966535903740    7.67861930231816
H         4.52853784820323   12.03502999776223    7.90358268544281
C         6.63605492870510   12.04916768128028    8.21531201008481
H         6.60821120574554   12.92368820272700    8.84766298395049
C         7.83946849175571   11.42139055356363    7.96044736012813
H         8.74417236842234   11.80918009965647    8.40192913870612
C         7.89731148726355   10.29335232528520    7.15309483814503
C         4.18511041172299    9.86444135455532    6.32391392632544
H         4.40629903354849    8.98867849950948    5.70579455357379
C         3.29562516339101    9.39943605774683    7.47902374311718
H         3.82832285506208    8.68225693492395    8.09998156255789
H         2.39631440966921    8.92309797635733    7.09447874187909
H         3.00036026943925   10.23633400843698    8.10591142568086
C         3.45843259010849   10.88848555029287    5.44978002994124
H         4.09781715889074   11.22454121575528    4.63499865821147
H         3.16531135841994   11.75766347772219    6.03231501292000
H         2.56049632102622   10.44588311806073    5.02366381442710
C         9.21795476050682    9.59893239531038    6.91725501484210
H         9.05186851280803    8.71753088088986    6.28918164314009
C        10.19676622164551   10.52316771207707    6.18957999453902
H         9.77004868257105   10.87451827917093    5.25144881471980
H        11.12210827583995    9.99333762420866    5.97322596044642
H        10.43528691717249   11.39014600432163    6.79988700500373
C         9.80562045784949    9.11298574607302    8.24366571388854
H         9.09179826506956    8.47699289729946    8.76248283737329
H        10.04987499205031    9.94853437381041    8.89372984184859
H        10.71311935984479    8.54022728273431    8.06565527829679

