111
CSD_code = VUBYUN | q = 1 | S = 0 | Stoichiometry = C46H60AgN4(1+) | MND = 2
Ag        6.19717636333971    5.51451905562313    4.28801081543948
N         3.24798385451887    6.36605202584551    4.24516757450032
N         3.66365300782104    4.60083408338115    5.68352356910973
C         4.08966194512965    5.50714788316615    4.81165059097649
C         1.78921188219908    6.28913150337500    4.23815062446378
H         1.49992442321409    5.28721520818871    3.90413090731511
H         1.42970920146970    7.00283635400388    3.49390127303095
C         1.12836909738974    6.59153079135220    5.58260674135153
H         0.09286706543043    6.25149023903760    5.52635532366495
H         1.10712146103884    7.66752935408704    5.76241577602538
C         1.84549901051818    5.89589915141230    6.74078085676107
H         2.69176137881909    6.50385495721326    7.06778847918398
H         1.16104090775067    5.80379964994890    7.58506665014452
C         2.36559869679294    4.51268029363796    6.35530215062823
H         2.52848881175036    3.91691507538223    7.25756883126106
H         1.63159665246596    3.97954332974023    5.74381177902686
C         3.82233594298327    7.33862830357020    3.36413270415862
C         3.89207583039121    7.07601168754854    1.99190154360063
C         4.40198014847520    8.05522376243191    1.15397223594559
H         4.45685664473742    7.86449514944013    0.09190932446211
C         4.83300884351708    9.28154250091568    1.64421265874131
C         4.76183324994801    9.51218255276625    3.00939064316332
H         5.09016434883997   10.46183394886194    3.40492650869212
C         4.26730079278129    8.55561487063869    3.88419577593441
C         3.42508470518504    5.76394939541499    1.43488633622640
H         3.69483487451539    5.68057294787547    0.38624189811850
H         2.34251040388700    5.67255870381827    1.51190337295634
H         3.87809501410076    4.93368953290401    1.97932411408404
C         5.35763670901780   10.32301783951942    0.70588651341943
H         6.16336190359249    9.91783173749884    0.09577492315882
H         5.72872071260276   11.18853304167748    1.24779170436818
H         4.56778275737243   10.65229787178292    0.03215941671809
C         4.21406438877267    8.82490173903406    5.35755420660221
H         4.51530093200933    9.84589345252301    5.57016140515338
H         4.89218353871341    8.15174942321103    5.88531933737501
H         3.20964534418361    8.67140569213481    5.74549559898436
C         4.62529235033435    3.62975777811916    6.11707332175055
C         5.47132529784030    3.91168660759894    7.19521558628737
C         6.34402160578434    2.92532247221979    7.62718069166071
H         6.99649743843980    3.12831552037591    8.46419145681788
C         6.38443105507428    1.67281309459951    7.02739882268976
C         5.53749033667167    1.42096429496583    5.95951670636220
H         5.54983275044212    0.44962090269938    5.48774894761882
C         4.65608288679024    2.38351272546478    5.48886435718532
C         5.41990675772242    5.24139989137225    7.88730016181837
H         6.14801020087936    5.27814252862039    8.69190044121320
H         4.43280044357270    5.41611504879338    8.31205813860767
H         5.63857327331862    6.04996003808725    7.18458071439033
C         7.31532969389366    0.62191422229268    7.54755935663934
H         7.30479875959629   -0.26127268260507    6.91443067856092
H         7.01788327414036    0.32469494524603    8.55246957094506
H         8.33339020844630    1.00363111200519    7.60527516379485
C         3.73790085715835    2.08090867043025    4.34375667435742
H         4.04207234336786    1.16630938208206    3.84505728721102
H         3.75005749944339    2.89221466582870    3.61657937197292
H         2.71507865683472    1.95201911505941    4.69736935420773
N         9.14636348561671    6.36599121978757    4.33083659045605
N         8.73070272078182    4.60074059954798    2.89251218089144
C         8.30469297285451    5.50706226247966    3.76437621192656
C        10.60514196815091    6.28913632276902    4.33783085019040
H        10.89448400790513    5.28725603279272    4.67191057587151
H        10.96461818703263    7.00290235250899    5.08203424558724
C        11.26596428723792    6.59149222440257    2.99335228740031
H        12.30146146698639    6.25143567549941    3.04959207849173
H        11.28722438956341    7.66748577949433    2.81351203701560
C        10.54880781745431    5.89583630455459    1.83521203871703
H         9.70251015287613    6.50376254351336    1.50825005953980
H        11.23322719864770    5.80375913283443    0.99089123462225
C        10.02876378566781    4.51260997879624    2.22073874306089
H         9.86591216520207    3.91679084263335    1.31850173043760
H        10.76278789146157    3.97954413357269    2.83226185180805
C         8.57200909633792    7.33853606149862    5.21190756356416
C         8.50232218600397    7.07588980050583    6.58413607424329
C         7.99242699823431    8.05507369495604    7.42210329351102
H         7.93758446083609    7.86431975215378    8.48416297849972
C         7.56135780800468    9.28139424067966    6.93190387624708
C         7.63249516745815    9.51207069517594    5.56672979992624
H         7.30414486084543   10.46172907087959    5.17122799498685
C         8.12701997290490    8.55553231051571    4.69188751559784
C         8.96937630877312    5.76383282716434    7.14110948523300
H         8.69958677768625    5.68038525090298    8.18973775253135
H        10.05196144761922    5.67252840297525    7.06413653867690
H         8.51645055194001    4.93356760777018    6.59661173690940
C         7.03674250349179   10.32283398773532    7.87027560058142
H         6.23102598103354    9.91762417966932    8.48038257178800
H         6.66565014640107   11.18837014314904    7.32841074201223
H         7.82660504527797   10.65208753585098    8.54400534703248
C         8.18024010767971    8.82486236413296    3.21853623597439
H         7.87901300031780    9.84586366356656    3.00596230587328
H         7.50210652837371    8.15173338328829    2.69075894485816
H         9.18465337537715    8.67136640954016    2.83057865926632
C         7.76907265414965    3.62967568690108    2.45890616434494
C         6.92311081064135    3.91159916106266    1.38071627044774
C         6.05039118891419    2.92524624508025    0.94872541909159
H         5.39794007697713    3.12829327609365    0.11170719448377
C         6.01000298826988    1.67272856226304    1.54846295726522
C         6.85691292421166    1.42085907796007    2.61636367198448
H         6.84447649697802    0.44953337207999    3.08816724526865
C         7.73823062289766    2.38342465419779    3.08711268701181
C         6.97459985420028    5.24129724334430    0.68860660536582
H         6.24647046550365    5.27808822391857   -0.11596679609255
H         7.96170027316238    5.41592100425154    0.26379344941773
H         6.75603833743816    6.04989266127133    1.39131407589166
C         5.07955600436943    0.62165296874216    1.02811758098410
H         5.08459443561599   -0.25879884306619    1.66497308937789
H         5.38186547919735    0.31914393248042    0.02632066517781
H         4.06274007679724    1.00509812469059    0.96288752146122
C         8.65623509216749    2.08083765779499    4.23236330134884
H         8.35219018232976    1.16602338043873    4.73074871589193
H         8.64363262594366    2.89198425636580    4.95971507548146
H         9.67918805317619    1.95234912463366    3.87898840363153

