181
CSD_code = VUBZUO | q = 1 | S = 0 | Stoichiometry = C60H116AuN4(1+) | MND = 2
Au        4.71830166918801    5.93248399182949    1.76330937252837
N         3.14281433136022    4.67473254891249    2.12436614310209
N         6.14086480909438    8.49819388670948    1.08484715964398
N         1.97271888598996    2.90572049539063    2.68136351604287
N         7.55199051656187    6.92544158612462    1.46052988854369
C         6.23617109802522    7.19679619499710    1.41079130242195
C         1.10467987324365    3.80368723119956    2.13675294386990
H         0.05985601822305    3.60497818153089    2.02571472491273
C         8.27623801729250    8.04710060060864    1.17032607222351
H         9.34594982437597    8.05104012479515    1.14638058451680
C         7.38575420736362    9.03910209101967    0.93339869930535
H         7.53995469916131   10.06301434175367    0.66421007911129
C         3.18447380587013    3.46802267710822    2.65618044246929
H         4.07139842971532    2.99179877411963    3.02100168238761
C         1.84009631564844    4.89852882693115    1.79633887555088
H         1.52131591256504    5.81296046253831    1.34071652314528
C         4.92594969770970    9.26538011427557    0.97470206453729
H         4.09398833705645    8.56716604483656    0.87179643581624
H         4.98260878760093    9.87839523839122    0.07132245923367
C         4.72412382612133   10.17107506101228    2.19618310168651
H         3.83230090009414   10.77537715233914    2.02826559286694
H         5.57666797315991   10.84875623817585    2.27271884349709
C         3.20770382626158    7.75557328316984    4.85271045980591
H         4.02640279957451    7.03414113308000    4.77338061698416
H         3.36930594742189    8.33799133079969    5.76140674085702
C         3.23715624998132    8.68177743090643    3.64018142566301
H         3.04037583537903    8.08505721323140    2.74605114819945
H         2.43957567321840    9.42172119606372    3.72603497481460
C         4.57996951325267    9.39645022396607    3.50640540596761
H         4.69070480592273   10.09357209643444    4.33813268688388
H         5.38920122116257    8.66583306961598    3.58764208981139
C         1.86820927358817    6.04087441330363    6.14616709356305
H         2.04786111400323    6.60217853803784    7.06507208348764
H         2.68125038181990    5.31730849759007    6.04115910225435
C         1.88519965959762    7.00215791968634    4.96137110563917
H         1.06944692441184    7.71971084838872    5.06931175897524
H         1.70991099081478    6.44208879894669    4.03840385500605
C         0.53791241456344    5.30204166491430    6.26538255923636
H        -0.27153993378573    6.03223050562752    6.32885662695336
H         0.36872836919542    4.70587503046420    5.36361297265610
C         0.49294148496188    4.40064933614323    7.49648342656438
H         0.69112769628463    5.00389768393399    8.38474552358224
H         1.28450577496899    3.64986715516447    7.43104429360141
C        -0.85766044963362    3.70790630236934    7.65849874416243
H        -1.06265864613081    3.09219401581024    6.77867298175651
H        -1.64334905631871    4.46410199838334    7.71811256747811
C        -0.90430114005988    2.83728619723325    8.91166902573526
H        -0.69365364082828    3.45696888237062    9.78590382220313
H        -0.12202333565221    2.07625318173617    8.85622982811700
C        -2.25997416178826    2.15950863031539    9.09302442666831
H        -3.03736514346241    2.92317815950527    9.16671247837512
H        -2.48256338388037    1.54930269240185    8.21401388446891
C         8.15775466022622    5.66811043769992    1.82012011926337
H         9.00763243918982    5.49734007489198    1.15475350204321
H         7.42226988195728    4.87734672697732    1.66240300948868
C         6.99370806578385    4.11575731217537    4.42755076004126
H         7.80050348427675    3.50534429070807    4.83810218408008
H         6.74148489273245    3.70756175321448    3.44521681035245
C         8.63406456882947    5.67635770089383    3.27822845932888
H         9.32707201350112    4.84671444817147    3.42097352378250
H         9.18434851245964    6.60221190869232    3.45733960151362
C         7.48820461358433    5.55353865277309    4.28352407076131
H         7.83205247295291    5.90291687926871    5.25806728448284
H         6.65999704984685    6.19828169870751    3.97705657066423
C         5.77445014167524    4.00943182882756    5.34112626959506
H         5.98047302839963    4.52540869153776    6.28080362803831
H         4.92268921159186    4.51122182574063    4.87180024746618
C         5.42304760805927    2.55360297524797    5.64284489132837
H         6.25459753053749    2.09632652929371    6.18264451035095
H         5.30676191110303    1.99740423090737    4.70742995232429
C         4.15431450193001    2.41630841991899    6.48094524963835
H         4.26073638574694    3.01616497019935    7.38733346580207
H         3.30083791509976    2.81355705941918    5.92345735088563
C         2.46976223104163   -0.62522437648737    8.24207490056535
H         2.31250196320387   -1.25848211605985    7.36499638017529
H         3.37305904626002   -0.97989528962226    8.74331938561105
C         2.67937286227282    0.81986036107633    7.79564259551473
H         1.78179040805775    1.17339324484074    7.28300346581438
H         2.82553474477960    1.44873197306121    8.67701232001437
C         3.88701557760464    0.96437023865662    6.87295358147705
H         4.76873541022879    0.56852807868016    7.38129858186695
H         3.73331613133838    0.36237878079541    5.97290444070281
C        -0.29689421561366   -3.79321602850371   11.06812533794307
H         0.60676010578621   -4.13188273232147   11.58034741404161
H        -0.44272229468836   -4.43933870126357   10.19864430524706
C        -1.49286868742153   -3.93452073155649   12.00630013123434
H        -2.39347872765776   -3.59201964784088   11.49198084015431
H        -1.34491843048976   -3.29366625543892   12.87937409377675
C         1.08831371289503   -2.21030719902143    9.65520312032344
H         0.93855958894961   -2.85500539543968    8.78530951456101
H         1.99407301025831   -2.55011249399902   10.16264744309851
C        -1.69845339597462   -5.37528695315523   12.46655279885018
H        -1.84919552905852   -6.01432244405819   11.59269710428444
H        -0.79778050213596   -5.72467333170152   12.97710111016210
C         1.28138803681901   -0.76939106030718    9.18936286682855
H         0.37379890479038   -0.43170413285000    8.68438637365270
H         1.43500863454234   -0.12720936468440   10.06012105706386
C        -0.10279058309429   -2.35348596991909   10.59923167914014
H        -1.00818248517744   -2.01892362643012   10.08817169972086
H         0.04568290612179   -1.70775353699884   11.46845812545405
C         1.65063094204012    1.57631226497043    3.14124075211939
H         2.57300859228507    1.11305564510972    3.49876109920203
H         1.28015143680924    0.99513032784530    2.29001188019459
C         0.29207818868626    0.13146753146306    4.67362725648046
H         1.19282594002213   -0.32681390859386    5.08656597875171
H         0.00199132991482   -0.44520441979309    3.79205565400562
C         0.60136217941997    1.56725605120296    4.25337176722178
H         0.96859446451518    2.13489405937130    5.11050466151877
H        -0.31485357164707    2.04504183099165    3.90140365046017
C        -0.82924028963916    0.05356809278827    5.70636035452288
H        -0.54475142479598    0.61542506695377    6.59798854879257
H        -1.73266579309194    0.51355110895383    5.29855792371207
C        -1.12922706958209   -1.39273279538244    6.09264972431484
H        -0.22840271895379   -1.84776238443605    6.50981179666091
H        -1.39829058050337   -1.95640364239833    5.19615170874907
C        -2.26166463346933   -1.49966126773375    7.11004270603353
H        -1.99504357253777   -0.93956427015227    8.00892260606334
H        -3.16638918517772   -1.04776756220460    6.69565949209407
C        -2.54811948170645   -2.95069028970016    7.48743970432780
H        -2.81567572373896   -3.51161047538911    6.58874509425810
H        -1.64184644964327   -3.40070510623689    7.89880301408887
C        -3.95171686980474   -4.52215522914321    8.88842768996449
H        -4.22875009347013   -5.08347984402553    7.99286821210286
H        -3.03872452570725   -4.96931006552119    9.28806499541245
C        -3.67524026634969   -3.06966993602838    8.50946015401937
H        -4.58483901226315   -2.62271384849776    8.10017528895778
H        -3.40799792083446   -2.50844815004698    9.40778235601974
C        -5.06502290877710   -4.64357362970372    9.92532133997411
H        -5.98077567583247   -4.19824334207933    9.52805391236583
H        -4.78615458837281   -4.08078362510513   10.81904199176322
C        -5.33501291058716   -6.09543173470919   10.31117838419815
H        -5.63550224419874   -6.65597009778285    9.42271576915234
H        -4.41346626946555   -6.54475489225371   10.68769215816153
C        -2.89590959001232   -5.51531392741489   13.40322312928761
H        -3.79311326243459   -5.15685005057602   12.89503441636447
H        -2.74067480052762   -4.88816678159255   14.28444305329873
C        -3.11106570922290   -6.95858923788323   13.84010338683530
H        -3.27381330716480   -7.59843804650329   12.97520700755480
H        -3.97829423574386   -7.03623961438338   14.49151787897169
H        -2.24201063097004   -7.32975057323818   14.37907096568282
C        -2.29688708324285    1.28168341549007   10.34149018526188
H        -1.51723870192621    0.51905566535398   10.27221488478323
H        -2.07644624817095    1.89403856063828   11.21872626882697
C        -3.65214197165723    0.60436934486456   10.52845145216444
H        -4.42769747921180    1.36831819767405   10.61882047722646
H        -3.88335010965170    0.00577527388783    9.64376810198681
C        -3.67879362075563   -0.29015159613625   11.76531920444625
H        -3.45085689078623    0.30996398707514   12.64931315166474
H        -2.89949810315312   -1.05140583657158   11.67849511926941
C        -6.42289806021225   -6.21394525406094   11.37531640970109
H        -6.12064315625339   -5.65850407545364   12.26617431525691
H        -7.34510840953792   -5.76161913784182   11.00196189720059
C        -6.69456367100976   -7.66474517676201   11.76288734710735
H        -5.77167742038154   -8.11901400146445   12.13051575308112
H        -7.00789367406181   -8.22375098918334   10.87792910482784
C        -7.77222525901981   -7.77557263653525   12.83811452320218
H        -7.45654255491615   -7.21826139583775   13.72344693468176
H        -8.69451207338116   -7.31727528629533   12.47303246671449
C        -5.03199939267106   -0.97107390849584   11.95397606515941
H        -5.27045157276430   -1.55628830294734   11.06228138139243
H        -5.80756216185378   -0.20948686289416   12.06345314169026
C        -5.04819138597372   -1.88575794459686   13.17633469412750
H        -4.26872394762999   -2.64387909187025   13.06997453480268
H        -4.81446296901804   -1.29977335623935   14.06807037347479
C        -6.39878865396550   -2.56699467460006   13.35832444694401
H        -7.18078842471415   -1.82775372635571   13.51680636370792
H        -6.37861832033862   -3.23332675068358   14.21760073085295
H        -6.65552489115676   -3.15008293463968   12.47643474594228
C        -8.04979952562091   -9.22539494066069   13.22672877438813
H        -8.35808515837007   -9.78370006881900   12.33943420835672
H        -7.12956410268040   -9.68197683477987   13.59929132416485
C        -9.13622653609046   -9.33545945724454   14.29340476600032
H        -8.82715926372306   -8.78018701717554   15.18230815637076
H       -10.05480702717581   -8.87559880176375   13.92092127393079
C        -9.42082518224151  -10.78486943397553   14.67916769247777
H        -9.72703153465738  -11.34056827366363   13.78985962121855
H        -8.50400016525801  -11.24428506139255   15.05582716354630
C       -10.51065380169824  -10.88623242347172   15.73909797997488
H       -10.21525220032201  -10.35579679562333   16.64181281813674
H       -10.69897785745713  -11.92550511161197   15.99789746349365
H       -11.43832750815492  -10.44976951497548   15.37510487352783

