52
CSD_code = VUCCOM | q = 0 | S = 0 | Stoichiometry = C22H26IIrN2 | MND = 8
Ir        2.70228749393313    3.39455182660429    7.48062824610380
N         5.28912536664893    4.76393725373260    6.45983531439583
C         4.27148317320312    4.61045303372481    7.33102188058388
I         3.67807016202951    1.07148537032212    6.63637624757448
N         4.27150041299868    5.71827504213373    8.11201730990611
C         5.68953752660710    3.82637674009829    5.44523017604642
H         4.81929033384598    3.47023732335375    4.89691155082266
H         6.17859705504518    2.96218150390392    5.89588186568319
H         6.37727788315274    4.31469931863321    4.75786764451243
C         5.92766964850767    5.94717101394407    6.70127381102774
H         6.77240551587832    6.27166298975985    6.12921839552159
C         5.29162593900411    6.54695747733450    7.73454179411309
H         5.50792457381985    7.48285180572492    8.20222739593083
C         3.33700324226341    5.90556504064952    9.22625448674783
C         1.89366745692850    6.13643642456447    8.67229495353994
H         1.23816011691582    6.27672135479100    9.53444830288928
H         1.89740947449393    7.06659905825828    8.09722702435142
C         3.72458303876665    7.16008084093157   10.00645894498499
H         3.69161477794180    8.03388169807729    9.35796980272388
H         4.72039406463218    7.06639705402136   10.43391216097877
H         3.01191698731736    7.32745452782961   10.80920042838560
C         0.40925958121274    3.05198822293805    7.18004452356900
C         0.86900853286583    3.74449690856475    5.98794045935273
C         1.40854170258637    4.97117864659958    6.37528098721564
C         1.38903431053832    5.01235475821972    7.82485152292246
C         0.62294259707911    3.88548500081680    8.28866509741896
C         0.10090174354724    3.67978383945076    9.67531836880058
H         0.04651689480751    2.62128244420138    9.92259055661207
H        -0.90589242353024    4.09780624641304    9.75428063326562
H         0.73378899914722    4.16211495284923   10.41737405124458
C        -0.40106848995224    1.79532184071401    7.14202243318102
H         0.04539070287286    1.06174900837334    6.47167675206567
H        -1.40966746482687    2.01013853819345    6.78096871503160
H        -0.48008926089881    1.34932823852862    8.13139204365120
C         0.61835999079137    3.25403727206931    4.59839776639219
H         0.90703478651583    2.20820029197129    4.49527662520561
H         1.17475461476692    3.83644089637608    3.86627363385146
H        -0.44466506283468    3.33106013583415    4.35951347261560
C         1.86522169143986    6.07828811775542    5.47661101875597
H         1.02806134617635    6.74519219072567    5.25545310815056
H         2.24072728853931    5.69044812484016    4.53080961764264
H         2.65534070542604    6.67209542650430    5.93483654574309
C         3.39904009126308    4.62822111595175   10.06512640992586
C         3.30444115977673    3.38501515821566    9.42503883942590
C         3.38165312754215    2.22856293027743   10.19052043867144
H         3.32059912960982    1.26020147781186    9.71754177680147
C         3.53730666595638    2.28749636308622   11.56502816472812
H         3.59068486909747    1.37473878997126   12.13981977615852
C         3.61574377696216    3.51488329125894   12.19331291339175
H         3.72848275989270    3.57650796959527   13.26576499504809
C         3.55303592852067    4.67701442736400   11.44481517046673
H         3.62126546117458    5.62119067613762   11.96215584586873

