54
CSD_code = VUCDED | q = 0 | S = 0 | Stoichiometry = C22H27I2N2Rh | MND = 8
Rh       11.06579002283748    4.31667425692346    6.95625938377708
I         9.84924439104898    5.87496341672070    8.76953958963321
C        11.63217232332759    2.94453225794629    8.34256255259642
N        10.85949770317777    2.18462948442847    9.14743779377337
I         8.93746767914943    2.91535687373334    6.06996574026204
N        12.92263298159954    2.55468943859653    8.58318509975692
C         9.43563549918921    2.21376920239551    9.36580634477762
H         9.01961799904975    3.17898545626969    9.09299133899761
H         9.24524391886304    2.03873747586682   10.42432357343551
H         8.94105132820575    1.43959568363696    8.77879943683518
C        11.63585475394720    1.32461292052908    9.86926495567861
H        11.21715542027305    0.62476281258142   10.56219620549325
C        12.91799581786925    1.55898342723405    9.53160299095694
H        13.80091300024050    1.09499605052221    9.90996206650511
C        14.17977772088220    3.22808671713263    8.23843489893076
C        14.23861740556687    3.70954781884133    6.76095449106941
H        15.11868810837757    4.35371433350320    6.67606584494993
H        14.41129486083471    2.82968248769217    6.13600897313284
C        15.33792141357243    2.22057066361164    8.37807859052991
H        15.62227548531876    2.07623474252495    9.41760653236114
H        16.21177260856048    2.58970351123019    7.84857924406031
H        15.06417121497703    1.26339549097970    7.93797062003219
C        11.32474482058563    5.01687794812707    4.76844625338683
C        11.56412370450248    6.11488988198924    5.60732516238514
C        12.64913306880949    5.78272681809702    6.50799498137957
C        13.06444458792390    4.44764580996516    6.20662066104214
C        12.20649241896064    3.93921103907897    5.17250221485289
C        12.39006968916927    2.66780618405733    4.40452815129052
H        13.06369481487146    2.84412653821735    3.56264416124094
H        11.44028189971976    2.31289245358858    4.00961243705573
H        12.80783156735340    1.87639356479852    5.02489300543313
C        10.43901041150998    5.02266019540099    3.56694874523357
H         9.50967046469825    5.55475930608430    3.76236311587343
H        10.19173031584654    4.01503143112118    3.24359047080115
H        10.95677367788537    5.53139705046798    2.75062474056198
C        10.95404975225499    7.47299356217830    5.47537857470022
H        11.54367095922941    8.06908119533561    4.77465639282764
H        10.93059591021747    7.98919187914708    6.43274340159382
H         9.93646537949425    7.40975307682470    5.09455255009778
C        13.36696923782019    6.81396531404671    7.31768057405158
H        12.82559507881743    7.07075081806989    8.22799398437020
H        13.46538242829048    7.72391478207033    6.72468194182469
H        14.35808229611359    6.47130147058250    7.60214556714334
C        14.40900449474722    4.38761912146574    9.20661893608855
C        13.42688041092336    4.84325321365774   10.07517530609682
H        12.44822980144727    4.39135267152866   10.09946353683270
C        13.66937990297519    5.90673891076577   10.92868678747427
H        12.87845780187510    6.25012659488632   11.57746863952396
C        14.90549486897971    6.52441602813372   10.94140502777241
H        15.09539043361817    7.35340614118247   11.60581337486438
C        15.89981682761919    6.06880052278894   10.09230265786946
H        16.87256948738314    6.53822648881422   10.09235486272057
C        15.65348190558728    5.01401059760912    9.23337442533992
H        16.44518992390129    4.68565486701777    8.57571309072605

