37
CSD_code = VUCGAC | q = 0 | S = 0 | Stoichiometry = C14H15Cl2N3O2Ru | MND = 6
C         9.70295792227926   -0.08750154147544   -0.86149753402172
H        10.49049941389162    0.57183001294773   -1.20050078017745
C         9.54782228687745   -1.34007170627438   -1.42685450642663
H        10.21383924171725   -1.66268947342541   -2.20991695405103
C         8.52804759085015   -2.16025125847324   -0.96787510659615
H         8.37689648326615   -3.14341104682617   -1.38534686786788
C         7.70360946112747   -1.69611829964487    0.03984288763567
H         6.90249982901875   -2.30701382350306    0.42114785912451
C         7.93225968356384   -0.42244641521106    0.55144308107444
C         6.09042279181287   -0.41064020695404    2.22435017470925
H         5.69123441619513   -1.38086891468245    2.01833375003487
C         5.69756955075596    0.51619970295780    3.12233775254719
H         4.89270010418053    0.46505559630366    3.82289866377138
C         7.44107347694052    1.38032292919861    2.04181850302275
C         6.43609741230312    2.82771661291610    3.80670987489337
C         7.74915871869710    2.99255235731858    4.57723460671035
H         8.60918572180162    2.90349744993892    3.91700988041757
H         7.83517328706338    2.22063500110058    5.33938983289384
H         7.78011083167159    3.96402924725057    5.06110913415072
C         6.15371380521731    3.99927809723888    2.86178734871329
H         6.25450425229568    4.94132915978857    3.39209949503034
H         5.14196402108719    3.92736200935846    2.46772858252670
H         6.83902270020011    3.99876241277843    2.01680623112097
C         5.29049761170839    2.72941676454977    4.81596256427025
H         5.44113024780549    1.90918173912993    5.51443016125911
H         4.32848170369674    2.61577844714565    4.32110995324013
H         5.26222690949101    3.65268675116356    5.38852700163581
C         9.20895702452962    3.87644622848160    1.82715403255691
C        10.48568207278325    2.77710769756312    0.00023677556677
Cl        7.41390484419700    2.88503379229475   -0.60364670410951
Ru        9.04272026742975    2.20981940722122    1.03213377729537
Cl       10.43102200671131    1.05342071927167    2.61892090837685
N         8.91460734728588    0.36818137014331    0.10742662190153
N         7.16547580041223    0.13264890450291    1.56479526409348
N         6.52944257924458    1.60202799450508    3.00134184855353
O         9.42987967075716    4.92640212552791    2.22268908270775
O        11.36420891113369    3.15539015587305   -0.61953719658402

