30
CSD_code = VUCJIM | q = 0 | S = 0 | Stoichiometry = C8H18O3Os | MND = 5
Os        4.92018852349852    0.50357007143642    2.26778770589151
O         6.34334000308786    0.55089002435967    3.00851091405158
O         3.52089752242741    1.34811853408397    1.46206698763870
O         5.01208125496334   -0.17539162046276    0.39644122265705
C         4.39873302408925   -1.45959727395372    2.75231214988590
C         3.92880389537763    1.15259424536593    3.99810377318764
C         3.26214773660934    1.30922882676943    0.08367764454357
C         4.60997001774946    0.77154299227714   -0.52692893469273
C         2.11604783830585    0.30454483071416   -0.12412955852443
C         2.83453314935616    2.69113214478485   -0.41810795980016
C         5.65762604654095    1.89710565070489   -0.63685559966362
C         4.42950239289321    0.11592120874351   -1.90250481411167
H         4.88389484933720   -2.12048253499988    2.03701257398288
H         4.71669975460125   -1.71110689159907    3.76126389377143
H         3.31681569230933   -1.57283167225985    2.67630124590782
H         3.94391083628372    2.24055315146053    4.00963625728734
H         2.89054495557167    0.83042306787035    4.01208002909980
H         4.41663971979649    0.79043674347596    4.89962967214196
H         2.45881917379161   -0.69308232818584    0.14570424894986
H         1.28987970519674    0.57971330128536    0.52890270276873
H         1.77419547059617    0.31541088570195   -1.15462496468889
H         3.53478528504152    3.45357776369789   -0.08943306653027
H         2.77732876296740    2.69743060654913   -1.50338786464346
H         1.85431332377170    2.93284250991650   -0.01293156168366
H         5.74651333717136    2.42823678803086    0.31415638996917
H         6.62167336259610    1.44567733226969   -0.86192704254604
H         5.40360386051169    2.60124707983657   -1.42469898928257
H         3.85599639954503   -0.80119691680331   -1.81576176395924
H         3.93209583407854    0.79740952713427   -2.58767339195705
H         5.40961827193348   -0.13451804820546   -2.30042189964986

