65
CSD_code = VUCJIN | q = 0 | S = 0 | Stoichiometry = C24H32Br2N4NiO2 | MND = 6
Ni        3.95712714108054    2.32145228800248   11.85134528936225
Br        8.66616661763876    4.98792360306082    7.00297982970294
N         3.46019716554908    3.82556697524598   10.71771161586929
N         1.91437832938536    1.37791536521238   10.87683944149185
H         2.14895986340554    1.08649609545659    9.92980245748610
H         1.70405112254986    0.54207893598390   11.41489278872134
O         5.06101300567273    1.66019027450920   10.45868176436343
C         5.78640254753021    2.39197481350041    9.71193913847990
C         6.96710268864197    1.85333815640812    9.12490670771846
H         7.20194974155696    0.81932181308551    9.33050406337562
C         7.79990135665349    2.60690792566676    8.34407965643277
H         8.70215506828047    2.17902206129428    7.93283391710018
C         7.48248064443206    3.93998499820917    8.07823435530262
C         6.33043839883971    4.49911710384176    8.57011297159120
H         6.08193578727229    5.52566520782203    8.34088150239249
C         5.47534078787573    3.75135397415762    9.38669738185216
C         4.23197973749252    4.30921748674672    9.81635930493790
H         3.91385455446139    5.20633848013391    9.27291074831426
C         2.14430027143483    4.40652635735819   10.84880062494049
H         2.13466341152393    5.41795575532155   10.41698653781392
H         1.89458010260085    4.46544354913389   11.90944882012429
C         1.08600739339208    3.55786970270273   10.12399899532172
H         0.17777719540346    4.15706198925168   10.03801929081809
H         1.44029665833556    3.33105127381458    9.11468930401570
C         0.74352029282302    2.25091789808366   10.84799014200196
H         0.48992903374401    2.48630509500442   11.88800916155614
C        -0.47968399688361    1.57939844426613   10.19692310257704
H        -1.28794723404415    2.30997500272870   10.13099078432066
H        -0.22577000150238    1.27240551930621    9.17863278763231
C        -0.96997489630015    0.37252181908157   10.99078969828813
H        -0.23422538385128   -0.42932949619466   10.99221387290826
H        -1.88649070724585   -0.01843181355762   10.55587930219379
H        -1.17308102571291    0.65423459372986   12.02217589013314
Br       -0.75213188185380   -0.34525879473061   16.69928106428432
N         4.45408246600807    0.81734266013644   12.98497986487525
N         5.99976546761805    3.26513351279575   12.82589496771581
H         5.76519880441159    3.55656389742655   13.77293283368225
H         6.21004364977034    4.10096586558420   12.28781712284085
O         2.85326220263188    2.98267888818292   13.24403040046954
C         2.12782516312748    2.25085283542050   13.99068621779140
C         0.94707188967680    2.78944933647751   14.57764791032023
H         0.71222704967037    3.82347155945764   14.37207916129435
C         0.11421778764656    2.03582813782743   15.35836754125244
H        -0.78807726967333    2.46368205886076   15.76955528944260
C         0.43163873484445    0.70274620252616   15.62418333434652
C         1.58373492804592    0.14365253386273   15.13238349150384
H         1.83223292400158   -0.88290138125501   15.36159715047065
C         2.43888174430111    0.89146478667326   14.31589836248363
C         3.68228413323814    0.33364469398379   13.88629224476682
H         4.00041723395793   -0.56347164317739   14.42974277770508
C         5.77001904443900    0.23646600791153   12.85393576428820
H         5.77971551049506   -0.77495223297798   13.28577530598621
H         6.01976620797198    0.17754104461705   11.79329472195100
C         6.82824327531265    1.08521577712456   13.57873060163879
H         7.73651189376314    0.48608574919525   13.66473197250197
H         6.47392757163931    1.31203476522189   14.58803055983178
C         7.17065606959153    2.39217509904673   12.85471474260852
H         7.42421741866818    2.15678920676101   11.81468731819277
C         8.39386500754178    3.06374438592676   13.50572265970400
H         9.20215507919366    2.33319407313186   13.57160033686944
H         8.14000137995156    3.37072540898584   14.52402927002461
C         8.88407391773373    4.27064027341333   12.71183292252491
H         8.14832749886664    5.07249447565760   12.71050770916736
H         9.80063773112731    4.66157905744798   13.14665638786867
H         9.08707169424414    3.98895051011574   11.68041874245516

