115
CSD_code = VUCKEL | q = 1 | S = 0 | Stoichiometry = C48H62AgN4(1+) | MND = 2
Ag       10.14971356137767   12.01880953632961   20.28240413570959
N        10.93568893723677   14.20559248599059   22.33016793819425
N         9.93836713433459   15.08738586553096   20.63701684663172
N         9.67406176429932    8.92750604008621   20.03038635369986
N        10.03202732205455    9.77422662129445   18.10064299052328
C        10.36274621633578   13.94715787147782   21.16312684397068
C        10.93339943775848   15.62765256672945   22.67764030439351
C        10.21561998234361   16.25453664210792   21.47593457326072
C        11.47366614617554   13.20462617138515   23.18360897365358
C        12.81411579708069   12.83464413035394   23.04170612151903
C        13.31251433935964   11.84427068801561   23.87771891395255
C        12.50417272600570   11.24475195391783   24.82417441350789
C        11.17834948184479   11.61388328001065   24.94421918561873
C        10.64064599493047   12.60107781034594   24.13025558694457
C        13.69310717630685   13.45473790714491   21.98021566457674
C        13.94624582316356   12.43568201241036   20.86608801373051
C        15.01164375426641   13.96777120980078   22.56063929867996
C         9.17955925672515   12.96937578694887   24.23487162606725
C         8.33460191461827   11.83425105915648   23.65351579353302
C         8.76566053192012   13.27717761769348   25.67422199642537
C         9.30564874709706   15.18275936164171   19.36808247906428
C        10.09509241441107   15.36472422470999   18.22877903823805
C         9.46209108953660   15.43876198184351   16.99591192965405
C         8.08731736538667   15.34128114549892   16.90132988196165
C         7.32149034843446   15.15251586819198   18.03552672395187
C         7.91461169671685   15.07137650082296   19.28845336741930
C        11.60140015512500   15.42508396466370   18.32211492475832
C        12.18824803528391   14.11998984389460   17.78117696322174
C        12.17603526799167   16.63218105229358   17.58022546072816
C         7.07342174746898   14.82432310870664   20.51942970307859
C         6.55315238682307   13.38461758920820   20.50440324860525
C         5.91866049816953   15.82093056242148   20.62868874146535
C         9.93476744608852   10.09257481872343   19.40601008741510
C         9.60754943290906    7.89804037062142   19.13208692389214
C         9.83788143335358    8.43369084936227   17.91031459632656
C         9.46800423897258    8.76356767258695   21.42856526627208
C        10.56302483543043    8.74664949657957   22.29209728898350
C        10.33522381976478    8.51244453929922   23.63953230297081
C         9.05675651024473    8.29723821555325   24.13356078139385
C         7.98383275935335    8.33816279618621   23.25153006183407
C         8.16716837992747    8.57198329526695   21.89845660951124
C        11.95086116847258    8.97570836502274   21.77696043502037
C         8.83066602690399    8.01409750400905   25.58555637308945
C         7.00059380443601    8.62460032430931   20.95905718493517
C        10.32150054185778   10.68392776918198   17.04567810345979
C        11.60762520447316   10.69594847180174   16.50249721055570
C        11.85965980555924   11.53123158902582   15.42640377905733
C        10.86966223378854   12.34745408068782   14.89319850818037
C         9.60728262641656   12.32867662747149   15.46863215102318
C         9.31185416646214   11.50467910729594   16.54368305638465
C        12.68636110914328    9.82927432529861   17.07802563857940
C        11.16255199922145   13.21871714440167   13.71220388614202
C         7.94266374461997   11.49467069159764   17.15117072237923
H        11.95886303599978   15.98925445532237   22.79780793522689
H        10.40496088322338   15.78820910029842   23.62151082438491
H         9.28146622093866   16.75343619037869   21.75021630760218
H        10.83732843967993   16.97343953204432   20.93505060101106
H        12.99556418438317   12.13122502612592   20.41282152355433
H        14.44355277694766   11.55173577536454   21.25723632291248
H        14.57227200509752   12.87114451224218   20.09136871841989
H        15.56107142981881   14.52050014447966   21.80213992032686
H        15.63896927115322   13.14859250821501   22.89980808160263
H        14.82700219684871   14.62949940965876   23.40405846327152
H         8.46654988428418   10.92381420853646   24.23015081983961
H         8.63973177149604   11.62623759238929   22.62128294815287
H         7.28137862058101   12.10290568924889   23.65929288758094
H         9.41936355912325   14.03037701639760   26.10875733975751
H         8.80849703795519   12.38738492280590   26.29547540646501
H         7.74526546194155   13.65280948263468   25.69451352934147
H        11.94967621958078   13.99970403000008   16.72887107949599
H        11.76820712111196   13.26396183530198   18.32165127117281
H        13.26882578552376   14.11156307812809   17.89843360778253
H        11.70271815513509   17.55152654813996   17.91820560525743
H        12.02567871667242   16.54408018139357   16.50825059357678
H        13.24517156564885   16.70645254158210   17.76498071997542
H         7.39461013596808   12.68175545305257   20.49554469840862
H         5.94048575840397   13.20456520247033   19.62470449371582
H         5.95319493196985   13.19077649492111   21.38996031969807
H         5.18953019320580   15.66840659101530   19.83830032803121
H         6.28691024843804   16.84234585748305   20.56214541597123
H         5.41137786117124   15.69839926208077   21.58281642185925
H        12.06335820158224   10.01695784497127   21.46335646118138
H        12.16208323349885    8.33639797637443   20.92063620612202
H        12.68283141679070    8.77476170386629   22.55316452597239
H         9.68810844332100    8.31500051071643   26.18187990637662
H         8.67499671362704    6.94567645055878   25.73340447998829
H         7.94370619039387    8.52898221580470   25.94897135919830
H         6.97159799256485    7.73716136369389   20.32716268248912
H         7.06718505825042    9.49758966328510   20.30986089918740
H         6.06862536780526    8.67445261389886   21.51423672944903
H        12.72061799354942    9.92715623570959   18.16323387305141
H        13.65437629718546   10.10894075417742   16.67311217820439
H        12.50902673985648    8.78047016669485   16.84078795745268
H        11.11853491918460   12.62737461628253   12.79780894569760
H        12.16102727699981   13.64532886694524   13.78065936318865
H        10.43521908482101   14.02205360010213   13.62781051330645
H         7.55561202641260   10.47929520612744   17.22806930793451
H         7.25659236866649   12.08647235097738   16.55309144202770
H         7.97834608686706   11.92425843816812   18.15542108580870
H        14.34238725858594   11.53677555959431   23.78753507741406
H        12.91174707912891   10.48225728826482   25.47090200714962
H        10.55416769075195   11.12840643229501   25.67701466039024
H        13.16874619459875   14.30481867883842   21.53388590315445
H         8.99088107834222   13.86336004543687   23.63351661494703
H        10.04977030367236   15.57173886722566   16.10191036532421
H         7.60748947791488   15.41051534745765   15.93657997858436
H         6.25022401576525   15.06602982499234   17.94453945117564
H        11.89295399575299   15.50787735666486   19.37308510431247
H         7.70024372393002   14.93683285735443   21.40897201414612
H         9.41534664890103    6.88866947049519   19.43165360912749
H         9.87033191719548    7.98289973637006   16.94010229488849
H        11.17735614983044    8.48848844936880   24.31426855449213
H         6.98333657799361    8.18244264365666   23.62705178504981
H        12.84861850723780   11.54560201226305   14.99279220612822
H         8.83046215875926   12.96155169462891   15.06736726853085

