99
CSD_code = VUCKIP | q = 1 | S = 0 | Stoichiometry = C40H54CuN4(1+) | MND = 2
Cu        1.04767477414379   -6.83534509909550    4.70053218339741
N        -0.26279565146647   -6.57010823979504    7.38648796802619
N        -1.64016817772117   -7.19657829437304    5.87109547852055
N         3.52990668035001   -6.24411600844081    3.25262598857291
N         2.25950679297591   -7.55002428879540    2.09223817799822
C        -0.34734019800993   -6.87259173906318    6.07657881441162
C        -1.48112412338388   -6.70143213385084    7.99213882739058
C        -2.35366425799315   -7.09781538851664    7.03274004803427
C         0.94697138125520   -6.18292523713211    8.03136622074829
C         1.28197201056779   -4.82830479705926    8.07741963708612
C         2.49011563943532   -4.47900019823087    8.66395111723811
C         3.32186576021674   -5.44522006174544    9.19656371859808
C         2.96223693654984   -6.77820006851989    9.15667051806725
C         1.76481151759341   -7.17421823449032    8.57578567956893
C         0.37092209988402   -3.77449213844819    7.49258744248766
C         0.14512328657613   -2.61607030868044    8.46552433238730
C         0.95311581318189   -3.26927265448073    6.17076909377400
C         1.37373252993274   -8.63344139691169    8.54121074306526
C         1.36228528082075   -9.23199315703431    9.94925305406674
C         2.31715958096895   -9.41332200736076    7.62319121613767
C        -2.16101275451346   -7.60369202080916    4.60938922577977
C        -2.20869916027390   -8.96783122756091    4.31126433035637
C        -2.68164968093825   -9.34356375700289    3.06103117224908
C        -3.10035995734549   -8.39442244259668    2.14769889057911
C        -3.04949132786357   -7.05087786848989    2.46520185147835
C        -2.57814953616785   -6.62849770349477    3.70166560401298
C        -1.71627229046426  -10.00730460859757    5.29128541343094
C        -2.71381276152605  -11.15424544438760    5.45725939566758
C        -0.35294766867540  -10.53229889549127    4.83080065740344
C        -2.50380429609707   -5.15530831481533    4.02716297496855
C        -3.87174043763653   -4.48699547126934    3.87907460574662
C        -1.46211647427108   -4.47752682062253    3.13312586169400
C         2.36095258748878   -6.87474080130297    3.23308221762790
C         4.33940753308943   -6.49301732567154    2.06197854276150
C         3.42875689521689   -7.40188274867276    1.23269107245746
C         4.00555358928947   -5.39280261183224    4.28743273322020
C         4.66827479966948   -5.94203628551570    5.38559627102050
C         5.15932919959713   -5.08573994425122    6.35892100136765
C         5.01450140080602   -3.70975843951853    6.25763198985188
C         4.34083250728983   -3.19207593205151    5.16031249237044
C         3.82478484684827   -4.01382100233140    4.16989546803929
C         4.88177636110178   -7.41989373543654    5.50830160774903
C         5.59428917954459   -2.79908780881010    7.29342759036759
C         3.09938495940320   -3.42025632018627    2.99995981790128
C         1.15160177462341   -8.34575561390847    1.65268022094365
H        -1.62439231232567   -6.50591820507132    9.03436060545313
H        -3.40067587644762   -7.31352078580878    7.07966968782166
H         2.78284068769198   -3.44297050321168    8.70759834591703
H         4.25325436188579   -5.15604008288850    9.65897501401440
H         3.61780845373980   -7.51966115801496    9.58532174507662
H        -0.60685237852564   -4.22109641478666    7.28309846889332
H        -0.61962652665685   -1.94984281397972    8.07346156416847
H         1.05295572090893   -2.03737300463317    8.60908926507707
H        -0.18465362622880   -2.98662056378826    9.43352763256898
H         1.07498649653729   -4.09299118281778    5.46841070638355
H         1.92807177606294   -2.81804062162870    6.33365087231628
H         0.29237910751397   -2.52727581453057    5.72918617827457
H         0.36194969432874   -8.72755390481101    8.13398696614195
H         0.72093812203830   -8.64993940988484   10.60737772503375
H         2.36081367792603   -9.25379864910587   10.37604978537669
H         0.98625319304628  -10.25162238984504    9.91507164802738
H         3.33811294313222   -9.37224157505431    7.99271801173800
H         2.29468463477608   -8.99618063171536    6.61786663672697
H         2.01290085602651  -10.45583916274618    7.57386852011470
H        -2.72362573819159  -10.38795628011455    2.79761683246736
H        -3.46903974563533   -8.70505714810421    1.18223406572336
H        -3.37930234753549   -6.32160598656860    1.74278424831178
H        -1.58331488430169   -9.54295185961348    6.27352492171844
H        -2.78317959614057  -11.75365516969416    4.55431454753348
H        -3.70339477423482  -10.76976822913709    5.69308130486132
H        -2.39502815842251  -11.80467127994827    6.26808371173971
H        -0.43314606782765  -10.99217080730066    3.84892705307972
H         0.01698498032255  -11.27663619453074    5.53112577142373
H         0.36916435557214   -9.71810160073391    4.77536400598031
H        -2.18264342262146   -5.02958672906854    5.06599250997758
H        -4.61448000477709   -4.99759023476649    4.48793927973869
H        -4.20729754784594   -4.50146412627668    2.84620706233971
H        -3.81462101404420   -3.45058707833383    4.20256333206661
H        -1.74211639399956   -4.55516859389188    2.08599675402219
H        -0.48773273387229   -4.94731855641414    3.26730211597599
H        -1.37760118761610   -3.42464896487647    3.38976955588874
H         5.27836536093924   -6.97522073150538    2.34652889283060
H         4.57520129996536   -5.55143818710571    1.56124149965305
H         3.13656407260882   -6.95440332139256    0.27786009245968
H         3.87338852820983   -8.38085395512934    1.03247494472016
H         5.67829525782370   -5.50465177303183    7.20783701989086
H         4.21909606416571   -2.12253532326466    5.06717323622734
H         5.80766610134964   -7.70778165385775    5.00914925713301
H         4.06439033139811   -7.98025259196471    5.05966706176982
H         4.96525320090429   -7.70122843949995    6.55420667070140
H         6.59695438056749   -2.49355316800756    6.99319153922279
H         5.67116851321550   -3.29938920568548    8.25517683904149
H         4.99389566476904   -1.89897145126617    7.40409030860101
H         3.79139426912306   -3.23603656744704    2.17728807635599
H         2.65440604239861   -2.46800330373314    3.27669578471041
H         2.31155321810629   -4.08186568566355    2.64418553921222
H         0.35082775428947   -8.29819719837768    2.38893034078206
H         1.45801290321965   -9.38672891174483    1.52204937885911
H         0.77629534862674   -7.97361822087198    0.69633579671572

