101
CSD_code = VUCLAI | q = 1 | S = 0 | Stoichiometry = C38H58AuN4(1+) | MND = 2
Au        9.53306706447496    4.02429256109122   17.73853410403515
N         6.61897112818230    3.23759460675536   17.70313974572866
N         7.89539877813410    1.50118181723020   17.79740326991485
N        11.22233149311669    6.58924660547574   17.88177963454085
N        12.49600524168997    4.86799998278205   17.59668529026815
C         7.87792986200468    2.82417637543915   17.73916147270718
C         5.65572031124557    2.13552515857120   17.68142372072791
C         6.55892726869004    0.90751015158771   17.82867806648212
C         6.21670568751289    4.58468604718448   17.49895866573362
C         6.26165120828223    5.11279357828661   16.20471934307700
C         5.88350551692461    6.43709043318548   16.02728422675312
C         5.46932360472557    7.20484645687715   17.09880321008050
C         5.40737570351661    6.65792221024964   18.36616618840455
C         5.77789380385531    5.33884074269232   18.59062799357564
C         6.64939322732229    4.26849875730845   15.01173215075960
C         5.45687816380832    4.14135013883802   14.05896975461075
C         7.86507007483636    4.83625012611934   14.27729514791295
C         5.63352748589612    4.72311848838318   19.96347598278786
C         4.14313634571865    4.54363515961686   20.27467355537681
C         6.30149505585525    5.55037565567976   21.06187873578123
C         9.07549990558232    0.71393376369314   17.86317413104382
C         9.61392856663827    0.20420174117271   16.67816378812896
C        10.78901243976884   -0.53064503973404   16.75996518211540
C        11.40026233515903   -0.75464899238752   17.97887892054827
C        10.83719814296298   -0.26677367672164   19.14264460440615
C         9.66329050704675    0.47424099967453   19.10789697530699
C         8.90873007433551    0.37502297633014   15.35163716056025
C         8.39551064527321   -0.98905460609154   14.87746158139037
C         9.80028587733286    1.00770099458288   14.28281465143740
C         9.02319478471621    0.95291136897164   20.39107607084412
C         8.63634190143503   -0.25114643075186   21.25498897159269
C         9.93697718914234    1.90116036656604   21.16927933165907
C        11.20540698368836    5.24414579572783   17.74310335614809
C        12.50883564099316    7.04389578696658   17.82025472416692
C        13.30560402207543    5.96713180565058   17.64358710946663
C        10.05381009538974    7.46401110405267   18.06112999608997
C         9.16195622742620    7.36411276726772   16.82260008486562
C        10.49256359315111    8.92027824414815   18.22945827753820
C         9.29490269471308    7.04105812805793   19.31943276070745
C        12.99355434869695    3.49314356605762   17.43733450277433
C        12.35938165328925    2.86526611421157   16.19621617439065
C        12.64508767903226    2.69357676140386   18.69347476358978
C        14.51326840252209    3.48766121924560   17.25947295155057
H         5.10260381459284    2.14551880168424   16.73718962942118
H         4.93982170780741    2.23706397512743   18.49917932855746
H         6.40720448787927    0.38195469885128   18.77627023807302
H         6.44065524730916    0.18736621256165   17.01609932562293
H         5.90463833822787    6.87081587660820   15.04007689091224
H         5.17447452657075    8.23130080503248   16.94145630713200
H         5.05531680642980    7.26134779088940   19.18761784801475
H         6.91869984432454    3.26384569927634   15.35181695725488
H         5.20721723864534    5.10347167328484   13.62094616008716
H         4.57941726146969    3.77104438276227   14.58557839940829
H         5.69375142655414    3.45077574139581   13.25304536626894
H         7.68611713010944    5.85653727125871   13.95060861898560
H         8.08124887351261    4.22928993167608   13.40136172150541
H         8.74110167555495    4.82696078009605   14.92433972505177
H         6.11315027659672    3.73884611568675   19.96233892512768
H         3.64154694800608    3.98545884793451   19.48634092617966
H         3.65578395597964    5.51106544254610   20.36156227075392
H         4.01547892063899    4.01029239430289   21.21361283320052
H         5.86403036452794    6.54170491300248   21.13326897458148
H         7.36705563131087    5.65350474475919   20.87563061660903
H         6.16799856607657    5.05555113455915   22.02095303142157
H        11.22521138600352   -0.94206939502456   15.86342509879373
H        12.31202274022855   -1.33092087059254   18.02402198415989
H        11.31236244472874   -0.47034747346664   20.08920903082791
H         8.04865302776860    1.03827425218901   15.48593788962924
H         9.22599279493952   -1.64983981111778   14.64502223236365
H         7.78997450252525   -0.87297299727929   13.98171951388651
H         7.79034516308687   -1.46605117421996   15.64624784870365
H         9.26194027157653    1.05057550468751   13.33895155760962
H        10.70628165425087    0.42944296709041   14.12857819100260
H        10.07862090253986    2.02060067922885   14.56253119559339
H         8.10989541987920    1.50663603744663   20.15220462449922
H         9.52024869317399   -0.78123510520163   21.59763138201636
H         8.02012743722805   -0.94826594595883   20.69083958445285
H         8.07681228220093    0.07788894969315   22.12726450623637
H        10.11014438710394    2.81542770427006   20.60371706261049
H        10.89578883307404    1.43703185995648   21.38198493849307
H         9.46927335885076    2.16857045554673   22.11373337632184
H        12.78901346187017    8.07025440936570   17.90063474477792
H        14.36825733568877    5.93575133574667   17.55318170724931
H         9.73266802536542    7.59298207606303   15.92531087814515
H         8.34168405089048    8.07099333027003   16.90160580671774
H         8.74110147339333    6.36784310907096   16.72771931403495
H         9.60790214121501    9.53122643959203   18.38639029192497
H        10.99655087197450    9.29117408620763   17.34041491897538
H        11.13842222531283    9.04497934131228   19.09523647227499
H         8.94125432550326    6.01731296192992   19.22485514415337
H         8.43658227563549    7.69027036456958   19.46362418296236
H         9.93883021373725    7.11194632768354   20.19344384287038
H        12.57943776936340    3.46108301899072   15.31310962683859
H        11.28184229534541    2.79295631057102   16.31510783427511
H        12.75342473219072    1.86440993958281   16.04923389916639
H        11.56914205537484    2.59502939938513   18.79967650993306
H        13.04413150617681    3.18415249901281   19.57857296820560
H        13.07167940303014    1.69754751892327   18.62595428494964
H        15.02029480466511    3.87942443507988   18.13785842126176
H        14.81383765064036    4.05287325897803   16.38048208681270
H        14.84052430517230    2.46090715568535   17.12043662352143

