42
CSD_code = VUCNOX | q = 0 | S = 0 | Stoichiometry = C19H18N2O2Pt | MND = 4
Pt        7.87380913878744    6.72112820293848    4.24116094293988
N         6.73741256548822    6.49850529473269    5.84889838346266
N         4.74726887061145    6.23059461205874    6.80397462746703
O         8.88280397729343    6.92746406314663    2.51599432605213
O         9.73451692443876    6.86311414774660    5.28258025274122
C         6.08752083733250    6.59290978327570    3.36802099691665
C         5.81302097307659    6.65792328634027    2.00753751634268
H         6.62907243623709    6.78275196439771    1.31097365444103
C         4.51481332774902    6.56589064932078    1.53159270298367
H         4.32281857321918    6.61872087134678    0.46909818822068
C         3.45533207114064    6.40680935135794    2.41176932539295
H         2.44462116848353    6.33670265501428    2.03625603853171
C         3.68594835628789    6.33799862770364    3.77232997830110
H         2.84631956468116    6.21602399767042    4.43780416151574
C         4.99120515414016    6.42925195717339    4.25434276408402
C         5.42455105765702    6.37974327969939    5.63159420132358
C         6.93735466362242    6.42591092442264    7.20001854986886
C         8.10014875344850    6.49035515861369    7.96103439969459
H         9.05167920770548    6.61883277373228    7.47318278535670
C         7.97368079379139    6.38417634353671    9.32911006862087
H         8.85438357683605    6.42964593295027    9.95182699881035
C         6.72723279113911    6.21809536148429    9.93665554106358
H         6.67235041132386    6.13987137994334   11.01203370782105
C         5.56362665753446    6.15133279414337    9.19689682448326
H         4.60879700678748    6.02270594715204    9.68400991481986
C         5.67857424314991    6.25625109024082    7.81788298294009
C         3.33213483375036    6.06837161174992    6.98748945228875
H         2.79282120166239    6.94158454390932    6.61511469697251
H         3.12731548818836    5.95924888238810    8.05033895858456
H         2.97763713042607    5.17519272644811    6.46952490316666
C        12.05968120206756    7.12273376650541    5.65878394082936
H        11.74237649934332    7.07509601450969    6.69753403535443
H        12.58968969389005    8.05683696861771    5.48621768889257
H        12.74266432014216    6.30031800332776    5.45552089122700
C        10.85520230500141    7.02950695373517    4.74147697326227
C        11.10365135516485    7.13461859272240    3.36877323401107
H        12.12794086444341    7.27289315993126    3.05761453371863
C        10.13256664427768    7.07590784919628    2.37214439683320
C        10.61103399602122    7.21387374278183    0.94023611524209
H         9.78760764255076    7.01502494627941    0.25968594161447
H        11.42441954346608    6.52043979340501    0.74186554367280
H        10.97439417764284    8.22574199433943    0.77119886014029

