77
CSD_code = VUCZAV | q = 0 | S = 0 | Stoichiometry = C36H33Cl2N4PRu | MND = 6
Ru       -1.11960266112487   14.26152680090997   11.90664319367351
P        -1.24984568656868   12.15919428858455   10.92999211695540
Cl       -1.02978277953294   16.44487221801750   12.82112813398085
Cl        0.31670381373624   14.93156243571961   10.13496272247798
N        -2.22929950298816   13.85288401926893   13.36787943387485
N         0.27044189704116   13.65240513039016   13.19614166284757
N        -2.94176039580341   14.83831207125673   11.15075747801487
N        -3.92228105776014   14.61674194566487   12.07391093977213
C        -3.54086747168833   14.11023145146352   13.31376611148833
C        -4.35037424639333   13.88938018773361   14.41678371004648
H        -5.40423872895217   14.08958327146320   14.39761886486545
C        -3.76444949619609   13.40911516757914   15.58917108112043
H        -4.38593262252729   13.23549567922419   16.45328375098362
C        -2.40607845035471   13.18207137676853   15.65017227559344
H        -1.92954657827855   12.83814166812739   16.55349855268622
C        -1.64099846880877   13.42505780642702   14.50678168485710
C        -0.23029093574427   13.31007251131989   14.35224109850576
H         0.40669508581569   12.99018039677480   15.17141006811219
C        -5.12364159714191   15.05452714995336   11.59154660780981
C        -4.87601877943371   15.57411815731653   10.34624752881596
H        -5.59088877708373   16.01384149684685    9.68124189922441
C        -3.49568916982860   15.43235194769161   10.11136533308063
C        -6.43266754381825   14.96139826987041   12.28588771643711
H        -6.45306146223749   15.58971670114387   13.17594500241241
H        -6.65799551929444   13.93370613688103   12.56897884643923
H        -7.20736457763392   15.31019423712391   11.60746955548943
C        -2.74133783277444   15.87653468460713    8.91580881950470
H        -3.07349158486233   16.87018943891649    8.62267563924844
H        -2.91415247695227   15.19526970710887    8.08310435720672
H        -1.67526765859968   15.90205210977890    9.13658515101412
C         1.64867369404673   13.56738563679584   13.00016280039782
C         2.33656146451599   14.66825541787261   12.48949934873819
H         1.79898397338474   15.58631323322001   12.30133403661325
C         3.69119249553358   14.57679052124742   12.25124426792837
H         4.21768255116769   15.43072715739986   11.85167552264407
C         4.39085181801542   13.40135256866027   12.50980163361300
C         3.70066451118175   12.31759875212808   13.03635636650150
H         4.22535248113646   11.39614249831342   13.24551163792239
C         2.34516658386761   12.39587644735332   13.28898627035230
H         1.81114778272107   11.53600297150243   13.67041431520141
C         5.86005377635354   13.32289463648802   12.22914485776120
H         6.06667172128866   13.62382132636849   11.20340963910763
H         6.23475645788985   12.31378678319703   12.38189259113506
H         6.40588727144405   13.99809973637178   12.88779567012583
C         0.22901051081918   11.10410545981874   10.76931474524442
C         0.17064621543501    9.72115155589913   10.91826123382886
H        -0.76152875441212    9.23958999211796   11.17987940361863
C         1.31079413145844    8.96194067783330   10.73182388695532
H         1.26608426343350    7.88938640418368   10.85683130460021
C         2.50525679479610    9.57082837393447   10.37939171370600
H         3.39219631946903    8.97074206830662   10.23688019949145
C         2.55582492830860   10.94221651360997   10.19683945601367
H         3.48019449696271   11.41861162888940    9.90721206971613
C         1.42137313777722   11.71091931055146   10.38711453136107
H         1.44995721394666   12.78176730222734   10.23467279728863
C        -1.91887692171936   11.87292160639204    9.25830641331857
C        -2.69693160761076   10.76287073682298    8.94296598355400
H        -2.98147335335437   10.05734002025866    9.71109091611790
C        -3.10887336774049   10.56228030726223    7.63825945015598
H        -3.71996293935436    9.70460475601644    7.39613481033629
C        -2.73471514802425   11.45051619246837    6.64240485990504
H        -3.06104185652268   11.28652231820915    5.62575033266723
C        -1.93285587752083   12.53702025730601    6.95032522648403
H        -1.62377724385539   13.22025909921970    6.17302098960527
C        -1.51974282674891   12.74903297778837    8.25388829806524
H        -0.88007430284110   13.58454968448265    8.50850567971343
C        -2.36981812619490   11.23978389534045   12.02862484641315
C        -3.74799137249805   11.37091382994233   11.86489479657373
H        -4.13243600794968   11.88479172252023   10.99225058632072
C        -4.61594117532954   10.84618716428380   12.80390339133307
H        -5.68321136541923   10.93893528354699   12.66205514805253
C        -4.12020792622161   10.20690634364708   13.92896836660722
H        -4.79941299576654    9.80012753692006   14.66300655058108
C        -2.75186146382075   10.09893220451823   14.11447281080981
H        -2.36358487438340    9.61336236031321   14.99775592755408
C        -1.88016445046001   10.61981148361931   13.17599720407565
H        -0.81081537107345   10.54739478104412   13.32556777459045

