40
CSD_code = VUDBIG | q = 0 | S = 0 | Stoichiometry = C18H17CoN2S2 | MND = 7
Co       13.91822788475245    2.50303981534332   -3.66774666571418
S        14.90252544528677    1.37868887082021   -2.13416856038606
S        12.04178907146231    1.55459823582868   -3.25401806027481
N        13.50826170847682   -2.88881847519250    2.05527781238921
N         9.77452141195552   -2.67009558247828    0.58515759537799
C        13.67189630757120    0.37479386970110   -1.44514022749464
C        12.36554389376749    0.45400507190762   -1.95789098128178
C        11.35701701866596   -0.34291050381263   -1.42373186017541
C        11.64157564343553   -1.21382656792585   -0.38426954876015
C        12.95731308968934   -1.29228265199770    0.13340266653126
C        13.96002784240663   -0.49898820198010   -0.40077494749255
C        13.24999591648238   -2.17759081827814    1.19410845908127
C        10.61810513529913   -2.02209320896937    0.15780176370843
C        15.08172278955603    4.19812671528178   -3.88582650523292
C        15.53206088979229    3.18681971334838   -4.77209155584406
C        14.43516230494645    2.83082859188852   -5.63180917999376
C        13.31918134087775    3.65426675158876   -5.29226389939848
C        13.70418491749531    4.48008441164137   -4.19834554270277
C        15.92864614152383    4.96111424870676   -2.92223902542877
C        16.93736599852254    2.69932499412156   -4.90043158334546
C        14.51899121082552    1.90454639638202   -6.79875079167586
C        12.02332462731654    3.74825822268685   -6.02910651676018
C        12.88828649427819    5.58410197325185   -3.61403866759585
H        15.33690978647459    5.34592789867433   -2.09531843858600
H        16.38649492132698    5.80744577908697   -3.43777841604442
H        16.72222361727709    4.33637400799442   -2.51971055040301
H        17.43578052807692    2.68809091058547   -3.93436994197072
H        17.49099958784348    3.36503037471181   -5.56469886364569
H        16.97116706220912    1.69610828813426   -5.31670760803378
H        15.22241711356273    1.09667502287894   -6.61147859321955
H        14.86473233269830    2.46035057427729   -7.67249137987099
H        13.54863505443516    1.47259956872135   -7.03098493915313
H        11.87255153555245    2.88480410328469   -6.67025444713367
H        12.02355759679487    4.64567758621620   -6.64932517295677
H        11.18505667844009    3.81111007484958   -5.33861493936059
H        11.82563057209286    5.37367356643197   -3.70315382048661
H        13.10054711157912    6.50923531233242   -4.15336558143634
H        13.12741478303909    5.74244971286184   -2.56505815647574
H        10.35659285833383   -0.27686509108654   -1.82389004427307
H        14.96576177623417   -0.55297956137332   -0.01230328440847

