38
CSD_code = VUDBOM | q = 0 | S = 0 | Stoichiometry = C16H15CoN4S2 | MND = 7
Co       12.56033083422366    2.54788278283189    2.74892640184275
S        10.55806085745459    2.55655656270157    1.95950141995923
S        12.59088339064559    0.40261442009692    2.92404645439846
N         8.92841874398857    0.55381278319858    1.46008831270690
N        10.74615607316968   -1.37118219478461    2.31752778122084
N         6.31805024676841   -1.46147639248228    0.57224211920838
N         8.90437946885025   -4.19604260665030    1.77870184044752
C        10.12106468619121    0.89716361331089    1.90775390842130
C        11.05051214312050   -0.08775516816064    2.34740218889501
C         8.62081843981461   -0.73796711079384    1.42986941845111
C         9.54630802426843   -1.71781723706373    1.86521222612505
C         7.34404943942138   -1.11969571730964    0.95073893478041
C         9.20739530708667   -3.09222369349288    1.82638542515342
C        13.55805599813441    4.16850495460593    1.95887814370368
C        14.49468303458582    3.16581170283786    2.40990153661492
C        14.29877710893368    2.97268457430627    3.80222023292390
C        13.22022641902587    3.82367430946643    4.21383097338551
C        12.78874831845757    4.58520645974783    3.07639396000589
C        13.53536635106534    4.77820017085272    0.59808968840263
C        15.59377312039186    2.57289865378704    1.59507547649624
C        15.15859691732478    2.13286617606113    4.68755763574493
C        12.75312863237261    4.02344374661594    5.61551471166694
C        11.80971845925808    5.71136344512689    3.09796013992023
H        13.80672439492472    4.05261528570242   -0.16474934163894
H        14.25703058728499    5.59617462093171    0.56055526589610
H        12.55240994391905    5.17848298748244    0.36444556194097
H        15.88047558441226    1.59777340532111    1.97988482640249
H        16.46527196503379    3.22862963664494    1.63894621864715
H        15.30261630952071    2.46695742314800    0.55301755494147
H        14.69471267404169    1.98044233871824    5.65738485547349
H        16.11853129773263    2.62909829778232    4.83577814695792
H        15.34417167752920    1.15933943652006    4.23902857950767
H        11.71621265386564    4.34898720975396    5.64238056182736
H        13.36399907486598    4.79480870505322    6.08828616574532
H        12.84751781513278    3.11039114156376    6.19826933335771
H        11.30341336948613    5.80609994509031    2.14117834280218
H        12.33663526413355    6.64430748252308    3.30354027686126
H        11.05827537351931    5.56556784853898    3.86893472079601

