57
CSD_code = VUDCUU | q = 1 | S = 0 | Stoichiometry = C29H23ClN3Pt(1+) | MND = 4
C         6.01080817930132   -2.63760030918465   -0.34579940329144
H         7.04485391510817   -2.62058702789477   -0.65632391686919
C         5.14431049565295   -3.57813985011109   -0.87266439430407
H         5.50550332002335   -4.29468695804832   -1.59449683194785
C         3.81735735993347   -3.60295117180292   -0.48524094008750
H         3.14193074008756   -4.33354804199187   -0.90547216079604
C         3.33320602016949   -2.68367306126620    0.44675278571020
C         4.21164891697967   -1.72023898548446    0.99966116732470
C         5.56785707551093   -1.69849823697671    0.58752774050327
C         6.43962136839445   -0.71377051093951    1.13668670643529
H         7.46902282566559   -0.70493457138687    0.81090338380660
C         5.99028212932676    0.19082729156382    2.03633045202776
H         6.65081776581307    0.94075174915394    2.44556662376918
C         4.63376330880254    0.18591548023677    2.47180850597583
C         4.15532655105006    1.12461813279847    3.38633358657784
H         4.81889708349786    1.89147597479848    3.75606883146127
C         2.84663753549338    1.07646922924294    3.81540136088890
H         2.49322432484288    1.82803324444139    4.50942590025499
C         1.95896184077104    0.10486036697150    3.35832305833371
C         2.38301246767586   -0.81369402607395    2.38046937769460
C         3.73911508735259   -0.78330373545515    1.95217492638804
C         1.51567882867957   -1.76887116674954    1.76374172882947
H         0.46231543441627   -1.76461329810324    2.00343866845459
C         1.96827648185769   -2.65631926480639    0.84712710722307
H         1.28766919818760   -3.35850192477040    0.38688087260408
C         0.57375102864726    0.08880986987318    3.95505098018715
H        -0.16621127612177   -0.26161296563260    3.23184114142816
H         0.30360486836980    1.11108440012605    4.24106487219706
C         0.55615380345813   -2.19115006376425    4.87506977841865
H         0.78419835715088   -2.73003005992222    5.80265900758960
H         1.36183503682034   -2.39683496671755    4.16129173837461
C        -0.76790829071971   -2.71571663549927    4.36205139351135
C        -0.84731276770501   -3.79095637783429    3.49270884906510
H         0.05682406324247   -4.25780644313662    3.13500093963629
C        -2.09421274375589   -4.25350414781641    3.09548975512808
H        -2.17520921436359   -5.09104824566363    2.42099695096398
C        -3.22696899911717   -3.61928087093788    3.58047260711464
H        -4.21400010342925   -3.94669887273655    3.29892331153160
C        -3.07741477132721   -2.54707599133521    4.44303063807243
H        -3.93169676847663   -2.02306386853816    4.85225139986879
C        -1.26463617280324    1.97211412339741    7.57537893137911
H        -2.34650984143536    1.93789310503710    7.58856375692565
C        -0.56258878601674    3.01034119247945    8.16407194374583
H        -1.09623099979407    3.81156062756194    8.64774037865897
C         0.82212710799374    2.99606805107552    8.11759638178918
H         1.39937161562171    3.79066833154153    8.56300969988049
C         1.45867392017059    1.93718556129613    7.48417643415491
H         2.53505744326846    1.89165859760538    7.43056269735446
C         0.69712205391321    0.92683894203088    6.92300649255149
C         1.31589583346784   -0.28536861979499    6.26271232038452
H         2.32932795405048   -0.06799330832384    5.90590916886682
H         1.38709557423726   -1.07329883332043    7.02242555924038
Cl       -3.49915456599316   -0.32921886772680    6.83295948782195
N         0.44696105835776   -0.75630976127709    5.17447286908189
N        -1.87867113121214   -2.10824259157340    4.82724364248556
N        -0.65065627682975    0.95465336257624    6.97274925613946
Pt       -1.44581526426479   -0.54548400119134    5.95749247949034

