89
CSD_code = VUDDOO | q = 1 | S = 0 | Stoichiometry = C42H41N2O2PRh(1+) | MND = 8
Rh        8.00740648764258    3.89803269969741    1.67672036446823
C         7.02048537830962    3.11003489509336    4.85898015606988
C         6.73865381491928    4.42612386473838    4.37760244882898
C         5.84173828797895    5.21654752270261    5.13698425386006
H         5.64086458630696    6.21638506765844    4.78300546694820
C         5.26090407618724    4.74084652923274    6.28185988037464
H         4.57929914612172    5.37018119803377    6.83382470213595
C         5.53518824872676    3.44835111645137    6.74328411798918
H         5.06715037375786    3.08641231094717    7.64427629443490
C         6.40212957452083    2.65610664646758    6.04198667935530
H         6.62734253973488    1.65716080718764    6.38664876767356
C         7.92819904302881    2.25333073848208    4.19229369078708
H         8.16499465000826    1.30901272660742    4.68378255671273
C        10.31055299851734    1.10000309880930    3.15680590198142
H        10.44763682335886    1.36082360410960    4.20924605295869
C        11.28156278552883    0.22030812821143    2.57628959270848
C        11.20114576628051   -0.20713807593350    1.23157687135802
C        12.18636903442851   -1.04923489138033    0.72022494852998
H        12.10314321276596   -1.36386958666824   -0.30793295722700
C        13.22991030045516   -1.46959241111105    1.51710352846454
H        13.98319801611927   -2.12460091741068    1.10802324403796
C        13.31696682038232   -1.05748484496349    2.84432422659470
H        14.13525137631304   -1.39349799024505    3.46085658018374
C        12.35480037478152   -0.22484306583078    3.36361718916070
H        12.41089387263368    0.10350872141123    4.39110462900332
C         6.06301918569566    3.37944037922745    0.81394737935867
C         6.37869736773563    4.73210480144289    0.42044279701570
C         7.58506059660513    4.70010699010760   -0.32593244164238
C         7.98387226020014    3.30811416962151   -0.47025969130137
C         7.00568904265798    2.50548509101711    0.18568317494503
C         4.79889478224462    2.95677798400677    1.49093402072942
H         4.00426818064280    2.86540617377777    0.74791531720984
H         4.48653928501189    3.68888502665428    2.23287826053385
H         4.91716502009545    1.99239145024077    1.98042284528713
C         5.52397554605911    5.91428927033177    0.73020309117603
H         5.89450144121616    6.81078875464831    0.23989015605355
H         5.48607328667593    6.09147971299307    1.80664571684569
H         4.50665667038863    5.72452910885716    0.38856039384592
C         8.18946232314591    5.83118871795979   -1.09596693863532
H         9.27263439621065    5.74069066318304   -1.15002966169876
H         7.94807212437597    6.79425324502896   -0.65400947127320
H         7.79802537537759    5.81205977256565   -2.11448087392475
C         9.00130165800294    2.81561780644834   -1.44630370212063
H         9.46510055447745    1.88659199179135   -1.12568989350646
H         9.78118383449581    3.55340972125519   -1.61233644555230
H         8.50310906921920    2.63158430697757   -2.40004345472294
C         6.89003417976269    1.01786618970476    0.13930519140288
H         6.80885205962289    0.58562338418023    1.13580975050655
H         7.73438787528853    0.56845989223200   -0.37431977127834
H         5.98023216080580    0.75784157364892   -0.40363765457030
C        11.28282758082515    4.69920751397351    0.67254301958036
C        11.75813914024569    5.78480289321903   -0.05540442073629
H        11.43768022838097    6.78673875407146    0.19154740951769
C        12.65096167117371    5.57996928850209   -1.09421186778010
H        13.01991181124223    6.42569912126264   -1.65427651598069
C        13.07190354836326    4.29958298759738   -1.41487698296106
H        13.77183660949867    4.14849554229354   -2.22195733919091
C        12.58724405744847    3.21254911370671   -0.70357553707982
H        12.90335772526473    2.21135089438192   -0.95434714239184
C        11.68813572640608    3.41095608113868    0.32696663003241
H        11.28873776706013    2.56891604119307    0.87250772767381
C        10.06051649328460    6.65755632692496    2.37757757094527
C         8.89411581975150    7.39228205876472    2.20991416993908
H         7.99153049240536    6.88641630667649    1.89931253289855
C         8.89156133027317    8.75187782750178    2.47012992344855
H         7.98453123637677    9.32395692849420    2.34415858674909
C        10.05080581621396    9.37849515704476    2.89632118846810
H        10.04794514038386   10.43827829568674    3.10022422892783
C        11.21544415119932    8.64540794359873    3.06928833638312
H        12.11688458768040    9.13433626007101    3.40629043805710
C        11.22471883832352    7.28733312049798    2.81380212346188
H        12.13007505162730    6.71133398920960    2.95018058259204
C        10.98882632561130    4.27107097493983    3.50097138190242
C        10.34209849819865    4.45673739608609    4.72264878878023
H         9.38397953994312    4.95778840231298    4.74099440003910
C        10.92448960707943    4.01566709374274    5.89506905610713
H        10.41567308529735    4.16079587160662    6.83609152077339
C        12.16261133243140    3.39092721587245    5.85952779850526
H        12.61907271778019    3.04518024015252    6.77448517038523
C        12.81652362010055    3.22072704870587    4.65080159316999
H        13.78671582174546    2.74804748542950    4.62079869350962
C        12.23432798910497    3.65504622524454    3.47103041183114
H        12.75900245949827    3.52034935556482    2.53683402636280
N         8.46630315642194    2.46888906329800    3.03152029697586
N         9.34466171702271    1.61329092518741    2.47470706865451
O         7.26890252331119    4.95200385894579    3.32752361614806
O        10.20284973164605    0.17891421716426    0.42141678767451
H         9.59188616349184    0.75122836601782    0.93500654749377
P        10.08901502309034    4.87359974371096    2.03374089705649

