89
CSD_code = VUDDUU | q = 1 | S = 0 | Stoichiometry = C42H41IrN2O2P(1+) | MND = 8
Ir        6.42922641748911    1.16359517966918   13.18195871148838
C         8.32822276103084    0.23390572240815   15.89648456858226
C         6.94578152780883   -0.12945339406908   15.89610487143585
C         6.51868251173893   -1.06142385738357   16.87215465154094
H         5.47194945425005   -1.32443507126356   16.88043936342303
C         7.39132110144970   -1.60050889363885   17.77910543190844
H         7.03074364983620   -2.31111348321479   18.50730841031987
C         8.74489497998586   -1.24508321705143   17.77135199438833
H         9.42083402373271   -1.67934615180264   18.48993044100657
C         9.19569683393197   -0.34299650199027   16.84742312564555
H        10.23710481601912   -0.05601825525725   16.83047324452685
C         8.85264773575317    1.18183944237085   14.98712867530137
H         9.89469106515001    1.46928954795449   15.12462439583775
C        10.01507518633022    4.64514596801631   12.82697473441907
C         9.93876619730761    4.59107318206334   11.41668227416181
C        10.48803822452697    5.62451774566464   10.66065912337700
H        10.42074023719668    5.56101200509422    9.58623314373741
C        11.10565010942071    6.69135877390485   11.27829871828420
H        11.52913272349022    7.48211684567224   10.67900082550358
C        11.18837875807016    6.75365834373065   12.66683423786041
H        11.67493061375926    7.59060554811545   13.14157571313083
C        10.65083178466805    5.74295486736221   13.42740124370303
H        10.70745827246194    5.77935675508345   14.50536305035933
C         9.45275959229379    3.62411806228920   13.66036804830857
H         9.57709308960042    3.74417132706061   14.73931432379595
C         5.15026060357363    4.39039210632804   12.58232993896640
C         6.21862834023510    4.86702186491545   11.82434172660906
H         7.21838929231565    4.53365773874398   12.05700249435038
C         6.00001992082459    5.75240348222142   10.78619534048637
H         6.83574258512516    6.12396390469530   10.21300309134965
C         4.70786001732179    6.15179788698740   10.48016462216745
H         4.53335654572411    6.84042913139266    9.66815282336463
C         3.63960614329677    5.66044260092760   11.21281914957128
H         2.63268926791063    5.96312270357256   10.96883023741024
C         3.85467966392633    4.78084328341281   12.26079407243829
H         3.01766504503449    4.40451439788558   12.83104994225076
C         3.96390973445179    3.08404060367099   14.84879960648066
C         3.45343357092712    4.21545299966887   15.48262415130867
H         3.98617695640193    5.15460167312007   15.41821258161376
C         2.26892293095675    4.13067526251166   16.18945583551256
H         1.87248254077186    5.00673517411776   16.67976146303825
C         1.59246346056671    2.92266516151608   16.27168927409470
H         0.66924209723913    2.86065904533852   16.82705686166408
C         2.10331549324152    1.79601134226525   15.64887376542455
H         1.57872482013531    0.85519240475142   15.72176406117413
C         3.28796087689558    1.87417552179012   14.93722131371662
H         3.70930017835088    0.99928046417050   14.46728369523395
C         6.54862737280641    4.15057410167958   15.08926252272100
C         7.03283641669058    5.43457139285832   14.86958404748941
H         6.78573862237890    5.96708954227364   13.96335747634314
C         7.83041951210428    6.04280220323292   15.82527022859239
H         8.20015833452623    7.04188092918066   15.65031137969896
C         8.15168480161617    5.37757224530964   16.99654851368349
H         8.77789270762056    5.85490522019817   17.73478479888177
C         7.66011233243974    4.10048869744909   17.22519901590531
H         7.89927526816917    3.58244520577384   18.14162475051016
C         6.86063773500337    3.49070196300063   16.27791239728542
H         6.46263109956741    2.50022294349161   16.44995532307206
C         5.00029388065643    0.66203806673503   11.55035262116741
C         5.30392305960477   -0.53891299506709   12.23659378482554
C         6.72202376496008   -0.76663998279325   12.12677979743303
C         7.26495552550609    0.22418833964813   11.25380889740522
C         6.22904344834813    1.14929025811404   10.93911979535623
C         3.63882475732219    1.19808889314427   11.24407012144319
H         2.91109780352760    0.89244402319811   11.99109301710386
H         3.31382561427942    0.82048832736980   10.27333431008349
H         3.64427553391762    2.28541092382181   11.19656456102795
C         4.36247015286925   -1.46053339992214   12.93171763119976
H         3.32991449731012   -1.15002890770032   12.79717121306585
H         4.58134568735910   -1.49627678810677   13.99978515760586
H         4.47794247125298   -2.46897947391604   12.53587175656763
C         7.42862770673023   -1.99110723830198   12.60442861041406
H         7.28851995207988   -2.80103799066309   11.88640691351601
H         7.03513869534115   -2.32002447776601   13.56403105053630
H         8.49651417395593   -1.81326129691070   12.70840505405790
C         8.64890861312803    0.20913597309523   10.69889388334575
H         8.76327717125316   -0.66716240516885   10.05966429545717
H         9.39731581143229    0.13690250206502   11.48663610109219
H         8.84829142074849    1.09389761408607   10.10243498279991
C         6.28940473690337    2.19774567255058    9.87838823756078
H         7.24392158954998    2.71723775353492    9.87116578246695
H         5.49743380680026    2.93091270026945   10.00262158049978
H         6.15798892468869    1.72189649135164    8.90498240225159
N         8.21668522541213    1.70728087083070   13.98245395265286
N         8.78113256417248    2.63332415436567   13.18255692516931
O         6.06140558100740    0.35489647552566   15.09237135534251
O         9.34368600446098    3.57268472345461   10.77634647676584
H         9.02574440598417    2.92969076326223   11.44668193314941
P         5.51537146399332    3.21183674065685   13.91443797418548

