59
CSD_code = VUDDAA | q = 0 | S = 0 | Stoichiometry = C24H32NOY | MND = 12
Y         6.59577736950518   12.57755752685321    3.99034392944374
O         8.23171937138384   12.41289852334235    5.90623789610087
N         6.53018693453084   10.53793114119596    3.59316410584463
H         5.58533824257596   10.17138713871161    3.75350980556696
C         6.58804481402819   13.89684801222551    1.76355387876195
C         6.36955431691670   14.90402438157705    2.73177069104054
H         5.51129243739360   15.56108338702012    2.77214268728847
C         7.52692735529211   15.01519897344577    3.53196997228164
H         7.70296668027444   15.77427804578926    4.28261608764100
C         8.47439059541778   14.08120346710718    3.06307230579813
H         9.51213985198851   14.02169212653233    3.36684646788908
C         7.89670732510026   13.38795485625831    1.96745986860802
H         8.41375749001846   12.71556202155962    1.29555561538075
C         5.69221802917166   13.55883091948793    0.60242080452509
H         5.88404011904216   14.23977368749184   -0.23009168967181
H         4.63903388380640   13.65372418285714    0.87012122370586
H         5.87906138259828   12.54328829373067    0.25258509531379
C         4.37086515401900   11.36767035607889    6.21487767020517
C         3.80428840178659   11.68025837219476    4.97541550877362
H         3.12051621505934   11.05320051417329    4.42391070641753
C         4.22731251678802   12.96779614353719    4.58805221847106
H         3.73441013828922   13.58480720295381    3.84116032668321
C         5.06897077403535   13.47303203856701    5.65213273335418
H         5.27980387517161   14.52574813945811    5.82295668684668
C         5.12573940139574   12.46483832389123    6.63949166534416
H         5.61499804802853   12.55419706898430    7.59799503979329
C         4.21389495226653   10.07118127999826    6.94759922696833
H         4.89455464135212    9.31172146630980    6.55334038356719
H         3.19802304899190    9.69319663194404    6.84347877070063
H         4.42804725349422   10.20104947755804    8.00705298591004
C         6.93049408305673   10.13292381429912    2.33389423470009
C         8.31159421128491   10.00581809498605    2.05217236039198
C         8.72542832897786    9.61311512092182    0.79334982046512
H         9.78392176861845    9.52330167381894    0.58961881654573
C         7.80934094504059    9.32138947991099   -0.20409329086406
H         8.14753799637773    9.01621618613892   -1.18272857377614
C         6.45568299217125    9.41900401954145    0.06818755132015
H         5.73674302841153    9.18934926187133   -0.70662926583801
C         6.00169898556423    9.81532696671730    1.31348249358878
C         9.31170219889553   10.26028973056082    3.14379756695637
H        10.32569527698442   10.14427948053786    2.76662720060555
H         9.15163980080244    9.54850503305236    3.95485338276300
H         9.19880396094319   11.26959498332998    3.55559132957711
C         4.52771758463358    9.95215349561754    1.57639397956607
H         3.96397354884023    9.78498572775489    0.66146973209863
H         4.29359889213837   10.95426750815787    1.95198520443000
H         4.19085249175757    9.22447696837179    2.31782332385022
C         8.37933057190969   11.17839846069208    6.63513713009888
H         7.46622330886255   10.59181191673334    6.50245992513507
H         9.23050942354463   10.62837121795121    6.21446030297475
C         8.65466447554321   11.56583142718257    8.08304092771106
H         9.21071623732968   10.79853873607439    8.61546584669146
H         7.72081351182540   11.75762138433928    8.61108366517382
C         9.44084984182456   12.86148389859730    7.90368023639143
H        10.47764474575468   12.64191279210516    7.64689498037748
H         9.42229596745530   13.49950326693060    8.78358771258962
C         8.71887393978650   13.49580568493350    6.71881044272756
H         7.86302553399964   14.09329230527368    7.05853879413577
H         9.37174572794548   14.12279766277410    6.10510150107369

