49
CSD_code = VUDHIM | q = 0 | S = 0 | Stoichiometry = C21H23ClN3Rh | MND = 6
Rh       14.81296281679868    3.15965615660937    1.18021547675974
Cl       15.55352952757314    3.43843655116062   -0.98812488852237
N        13.56673977243583    5.86187576404204    1.11817443612204
N        12.52437433233595    6.61575056112665    0.71132255614486
N        12.32828792227171    4.52389194784451    0.01354546648947
C        13.48772737565790    4.57411888863440    0.74183530444706
C        11.76702760902072    5.80184187126887    0.02806084659416
C        10.54760882425665    6.05419480383280   -0.63013200475047
H        10.14456818453552    7.05150090686655   -0.60032979808309
C         9.94849400038862    5.01895096889620   -1.27591004697009
H         9.01329103136304    5.16268449732553   -1.79390776870877
C        10.55054692256553    3.73981258462479   -1.29146387111464
H        10.06796054837635    2.94003028380559   -1.82920110344955
C        11.73618809407014    3.49018363441390   -0.66437488940511
C        12.42157912573355    2.17544678632011   -0.72823625777063
H        11.75748139753357    1.41838175931684   -1.13529810893266
H        12.77979483965101    1.86791209411506    0.25991476962190
H        13.30193154295437    2.26386277796387   -1.37054558978688
C        14.57794299392977    6.46638108008369    1.88206129301723
C        15.89529459119877    6.02505942148246    1.80285944598489
H        16.16434454665915    5.23465310126458    1.10676670142438
C        16.85938720672521    6.63051772242642    2.58860997776544
H        17.88389340469208    6.29495639659613    2.52809858617997
C        16.52304951723328    7.67454220171907    3.43491481659858
H        17.28147937234974    8.14210033610285    4.04482756947547
C        15.21500967161447    8.12853046706095    3.48682726387681
H        14.95227165609733    8.95071878228576    4.13536693972834
C        14.23967897439650    7.52988451397563    2.71184459295480
H        13.21664994205522    7.87114620587146    2.73627022290971
C        16.68806065287004    2.24891803897836    1.71718083645281
H        17.40998523681442    2.54801754433233    0.95704585162767
C        15.80304231561891    1.23992847742837    1.40242117265669
H        15.85233362180771    0.81579858442126    0.39954059693507
C        15.15090791405683    0.35713182787533    2.44427974827278
H        15.82961315438134    0.25537563822318    3.29271167650086
H        15.00658680413642   -0.64083147292269    2.02540672015856
C        13.78844791571240    0.90129607048613    2.91472979881984
H        12.99526079695416    0.44652868279850    2.31534843510436
H        13.60726629567436    0.60790094995294    3.95521782078102
C        13.67044732565676    2.40559203279628    2.80059820738149
H        12.63451541715810    2.74773539578785    2.75684881941698
C        14.61551185630528    3.30476551209905    3.29930916216501
H        14.25749086290436    4.29606656471722    3.57394604834081
C        15.85673414785296    2.86812450228516    4.04838271991730
H        16.11062589501534    3.63295484947273    4.78509350834709
H        15.63355164385549    1.95163820826734    4.59795219911771
C        17.06970673800959    2.65501084454423    3.12164750566319
H        17.63706207460527    3.58643869814135    3.06482302946809
H        17.73575358613581    1.89528598327785    3.54582420427141

