73
CSD_code = VUDJOT | q = 0 | S = 0 | Stoichiometry = C18H42Cl2HgN8P2 | MND = 4
Hg        3.78604236620491    2.26150933516796   -0.08192016615887
Cl        4.79606846188031    1.14203431706227   -1.90054281220697
Cl        4.44058133659447    4.11088647546854    1.21611945400462
P         4.06468855267796    0.25707472063461    1.72748316200310
P         1.61337935262551    3.19930246610203   -1.37556076944510
N         4.70583096832490   -1.93944058306394    3.83067824971572
N         5.69198803111212   -0.11243646093695    1.89186774984798
N         3.56066904584520    0.62812673199933    3.28990414371123
N         3.29661711683256   -1.20449519142810    1.43113470683947
N        -0.56937773906984    4.21792289393519   -3.02872402674963
N         0.82716304076337    4.49268928260009   -0.65557906119548
N         2.11376319669722    3.76557502720102   -2.87141221182344
N         0.41761318541472    2.04574247531315   -1.62605579905822
C         6.05167205867149   -2.04639075547732    3.35062311560045
C         6.19359611658216   -1.46970662416995    1.92819193142354
C         6.65870186239766    0.94529247390658    1.67289698753466
C         4.39277279968803   -1.03210580115914    4.89439498412696
C         4.42661407973719    0.43978438175464    4.43566940332191
C         2.45388826510400    1.54794309983277    3.43321800730476
C         3.68753445906208   -2.78748637847411    3.28896610575964
C         2.65822652373027   -1.99038622618996    2.46216730220261
C         3.24233823997943   -1.69456535080615    0.07093526038181
C        -0.79981755462054    5.39531357734196   -2.24079169043799
C         0.45061634014119    5.68238173459073   -1.38970308969807
C         0.76934961810970    4.54341923115781    0.78792114895599
C         0.18880905656043    4.32845948305920   -4.24283824849557
C         1.44539808010599    3.44771890513723   -4.11398452050356
C         3.42418032663790    4.37832307286339   -2.94859657933994
C        -1.43452170231842    3.08787645730892   -2.85387219005735
C        -0.99774449076288    2.33281456765440   -1.58542348097150
C         0.82931642950221    0.70598860564714   -1.98193230187267
H         2.20699702235352   -1.78974719986018   -0.27348776671711
H         3.76260189634930   -0.98836314238974   -0.57999069816548
H         3.72453636632661   -2.67226293832088   -0.02699665938556
H        -1.55320185519516    1.39896085702938   -1.47196217264823
H        -1.20382211622865    2.96849799504195   -0.71977014033262
H         0.46629774882248   -0.02117287090087   -1.24730422846086
H         0.45712042846295    0.41161106524789   -2.96821351296733
H         1.92145906721870    0.66739484102968   -2.00370412374463
H         0.26309363705836    6.49603994931376   -0.68685846357753
H         1.26248823333628    5.98273390304351   -2.05875974024899
H         3.78995865507214    4.56153374067718   -1.93246312171821
H         4.14288970483438    3.73297494786901   -3.46335850592660
H         3.37494050598075    5.33887913821833   -3.47004975957553
H        -0.39432905249950    4.02157289289159   -5.12341134592794
H         0.48907600174847    5.36952889780614   -4.37735134448653
H         2.12925042809709    3.61313374963278   -4.94838448569860
H         1.14196019016618    2.39739379322783   -4.12281584458065
H        -1.02641213433469    6.27174528174745   -2.86609160295152
H        -1.65286883765643    5.21664112600330   -1.58282961900940
H        -2.49128450010903    3.38205871075081   -2.76191745204865
H        -1.33729436515028    2.43096234434263   -3.72039746612407
H         1.36070173972039    5.37198053746194    1.18775072226015
H        -0.26247682324336    4.64090533971719    1.14096555402880
H         1.18482119481565    3.61303846455508    1.18330331324615
H         7.42098148952092    0.93854745446581    2.45723535432426
H         7.15420063943718    0.84740736642700    0.70112999939036
H         6.14696474806990    1.91100996670827    1.70628688873366
H         3.39295740453800   -1.27234084407365    5.26267919323666
H         5.10102794155333   -1.15250024353985    5.72816426587767
H         5.45758674675168    0.70070172301846    4.17971606594673
H         4.09893027998076    1.09343508884663    5.24651058431349
H         5.62909964437243   -2.10017176028668    1.23709762819241
H         7.24050724367197   -1.47712059979110    1.61746163878073
H         6.70171788383638   -1.49344706822810    4.03172024459743
H         6.38056597459039   -3.09673184764678    3.34110789459960
H         2.78489998377413    2.55621682832185    3.70161389562735
H         1.92700077616337    1.60178485396065    2.47602374839223
H         1.75170478243081    1.19166713565629    4.19239424922194
H         2.12169756849962   -1.32072857084394    3.13976958231550
H         1.93622578430375   -2.66890421082520    2.00054336247117
H         4.16683691502597   -3.53355341250976    2.65198035416740
H         3.15163362845401   -3.31837923723076    4.09142874843510

