39
CSD_code = VUDMUD | q = 0 | S = 0 | Stoichiometry = C17H12N2O7Ti | MND = 12
Ti       -0.15515605860306   -0.49272586106315    8.51442349276463
N         5.60482560371101   -4.13918140924247    9.45512174766690
N         2.90551540510340   -0.82912052818419   11.80705933902554
O         1.03136005018571   -1.03121808628150    9.75162638672734
O         0.42430759250953   -1.75356434034080    7.38483878728594
O         1.63359955090495   -3.32024679684803    6.39606902046916
O         5.75178435484664   -4.82861222583731    8.47145477006300
O         6.36942564685562   -4.09002928328318   10.39332046081465
O         3.54678450488685   -1.06481674382875   12.80644607587394
O         2.13144876131105    0.10058258637148   11.68776845446420
C        -1.45722017727085   -1.85503723879204   10.00845516705766
H        -1.06559431160092   -2.53181328050270   10.75772984761005
C        -1.84105560121485   -2.20217327776097    8.70218153414981
H        -1.78660070640551   -3.19021360843516    8.26298554711276
C        -2.38967291630110   -1.05424427213762    8.08635028207272
H        -2.87693484943104   -1.03395437731566    7.11906880161151
C        -2.38864185361679   -0.01017970427717    9.04011554277829
H        -2.90003702231561    0.93743557905110    8.93613557417113
C        -1.77413312840274   -0.48967516038756   10.21461163508916
H        -1.69337144037949    0.03774991101591   11.15734300213218
C         0.55566161645410    0.84740179986193    6.67614890531293
H         0.63194139311220    0.51479700605098    5.64813092710156
C        -0.56430564769704    1.46085140399437    7.26893844765677
H        -1.47713299116128    1.73093282056681    6.75243592902178
C        -0.20324704696886    1.85293563572671    8.58309661341722
H        -0.78897387754959    2.47523601365653    9.24750010273130
C         1.13600704540176    1.47730858353470    8.79736723583295
H         1.72244011788676    1.70830069436319    9.67752732961189
C         1.60381625256369    0.84405981258614    7.62342896215960
H         2.61900023964047    0.51294906593870    7.43950896438929
C         1.43630607887192   -2.56899348869010    7.32314822685840
C         2.38459581366845   -2.52872364165388    8.50245718355478
C         3.51793858864101   -3.31557339890747    8.45943875528747
H         3.69557082745877   -3.93716476321029    7.59194492383877
C         4.42657068754123   -3.30973770473883    9.51690790619905
C         4.21896950508433   -2.49992166215194   10.62364791031780
H         4.93470113597167   -2.48299056276881   11.43460002038939
C         3.09252380521023   -1.69988717394780   10.67786631731068
C         2.11778305110097   -1.70764232212930    9.63639987007054

