35
CSD_code = VUDMOX | q = 0 | S = 0 | Stoichiometry = C17H12Cl2O3Ti | MND = 12
Ti        0.85217127899101    1.45461842290440    7.39109096261004
Cl        3.83987417524904    1.35231332063518   10.82815890323859
Cl        5.08901773445479    6.52131039256633    9.97537172492830
O         0.56489181332301    3.18451090946693    7.09441203280455
O         1.19762279715913    5.25582863198883    6.64334108960998
O         1.87968644889058    1.78956628981423    8.80263241535974
C        -1.18505230546012    1.75205760566946    8.60300809063866
H        -1.50959986996943    2.68856551167680    9.03882303365921
C        -1.50055498957282    1.29204174769927    7.30193674027283
H        -2.12955229317846    1.80873644399815    6.58738846397199
C        -0.99196425503044   -0.01341844644047    7.17115191695247
H        -1.19751673291738   -0.69099303324699    6.35312782498124
C        -0.32626721100697   -0.34885425485365    8.37288170488032
H         0.07467104889059   -1.32187071300597    8.62924199719506
C        -0.47603384351193    0.73268201276060    9.26537452691804
H        -0.15710767467710    0.74958307402929   10.29987099054805
C         1.13756031913733    0.61968563236980    5.19723681221594
H         0.35342105582272    0.41427093985695    4.47891387818001
C         1.71171575455293   -0.31471730641110    6.09480030145479
H         1.44878058382596   -1.36200980210921    6.17454504895719
C         2.82218081837322    0.29708704185886    6.70726876672343
H         3.52624647331130   -0.18362793951845    7.37637529776007
C         2.94757963577966    1.60167451930720    6.17698746912774
H         3.75448537603331    2.29407961776205    6.38156993557935
C         1.91526107228241    1.79279263254025    5.23858651377999
H         1.78645960066853    2.66375492627600    4.60798028507907
C         2.38492235418157    4.08551057748458    8.33190171366421
C         1.32993331242595    4.22703863974724    7.26978793260855
C         3.15500570355364    5.20539562593014    8.63778787922808
H         2.96869655745903    6.11538966915512    8.08760001131422
C         4.13128454717520    5.13610741970998    9.61206037969857
C         4.36068095067945    3.95218175897441   10.30735700272599
H         5.12608934077954    3.89708412678639   11.06471690866274
C         3.59430112925254    2.84687124711843   10.00981431303280
C         2.58330929307271    2.87155275749884    9.02349713163898

