31
CSD_code = VUDQUH | q = 0 | S = 0 | Stoichiometry = C10H12MoN2O4S2 | MND = 6
Mo        1.24736863767177    3.30277105461175    2.46972373550179
S         1.14471165246709    5.55843022331532    1.51991328783503
S         3.14107656318343    6.96011190607943   -0.13515547130405
O         2.12431326315376    2.15699008865748    3.62306567572973
O        -0.05061618546141    3.73855419644321    3.37901255277230
O         0.96659197031099    2.48210679997803    1.07729963229491
O         2.24285154311237    4.88716978104653    4.35445718731803
H         1.31783084017974    5.13198760558221    4.51668825050873
N         3.33555774321095    3.66270194027717    1.86206434728048
N         3.66005388375503    4.72229912783931    1.08713477697034
C         4.27044696163097    2.76246127131915    1.92706639155566
H         5.17737891156457    2.95335578108919    1.35133245097683
C         4.20507705887018    1.55325580221929    2.67690412777911
C         5.24958023759463    0.61659444097227    2.60668653851407
H         6.09182422710147    0.82569578691660    1.96351200406274
C         5.20142908373602   -0.55007656358115    3.33218064054546
H         6.00641719078935   -1.26487662604895    3.26307618781741
C         4.10952197613939   -0.81160031250913    4.15844931124201
H         4.07492252140183   -1.72960673809430    4.72536968791367
C         3.07390022262267    0.09150023940331    4.25941166851492
H         2.21789009599634   -0.09744589986469    4.89189584115329
C         3.09669331688978    1.28198430860435    3.51998795430305
C         2.74797114347957    5.60619765054982    0.86603429071050
C         4.85893292721993    6.56424584299901   -0.58699252897173
H         5.45830589914548    6.50682513960871    0.31433236555841
H         5.20189367906644    7.36899581981270   -1.22802248914675
H         4.87493062263700    5.61796212396740   -1.11574237600990
C         2.76762815856380    4.35817705750280    5.56277662112949
H         2.19314342144825    3.49021597061324    5.90084522618708
H         2.76509551236906    5.12617284721189    6.34241543091505
H         3.79627692014975    4.05624333347516    5.36277668034297

