39
CSD_code = VUDTIY | q = 1 | S = 0 | Stoichiometry = C14H20ClN2ORu(1+) | MND = 9
Ru        4.09814265750733    0.49295771231605    7.20131302070754
N         7.49394234908126    2.45911413620719    8.57075214653826
N         4.17076615004044    1.06672430852365    9.27496987124799
O         6.10128766466573    1.10213636639742    7.46454929235381
Cl        3.72480372510137    2.77369838445489    6.93957789248604
C         6.32490709394567    1.84022313128295    8.43031276441861
C         5.27762378561258    2.03358320028841    9.52197359551359
C         5.81456775065879    1.74117595345075   10.94327939440078
C         4.83300117790081    0.71284748553459   11.51079976360434
C         4.36017908023141   -0.01303843588899   10.25375224672874
C         3.91392781531846   -1.80017118273144    7.11483565703653
C         2.63651438785927   -1.22978257968958    7.33373913281196
C         2.09820458045631   -0.27672554330797    6.43592312124887
C         2.86574608996398    0.09821258823483    5.31134311590302
C         4.16128033164355   -0.43239117283243    5.11668146606725
C         4.69025660271892   -1.38231436949822    6.01873370158068
C         4.73240428128943    0.07386154034037    3.82543659949765
C         3.86586967829372    1.30848235844233    3.52792075194632
H         4.30682520324606    2.18088029406880    4.01320634617448
H         3.77895181688219    1.51031880009801    2.46371003271767
C         2.50675696561608    1.01038260937547    4.18251239312178
H         6.81466287510968    1.31078471453912   10.89115556598378
H         1.84166724667767    0.47642284425470    3.49705035559913
H         4.88884425613861    3.05304346630367    9.42121700063360
H         8.17528205962391    2.38890679366376    7.82841945350917
H         1.99703322661984    1.91370940949320    4.51598861276030
H         3.43962141245773   -0.57680420353547   10.39944502654936
H         5.30099494413792    0.04388964872700   12.22752035901416
H         7.67143479354559    3.10149212142750    9.32435166356992
H         2.02012728790103   -1.59835263691245    8.14789912121766
H         3.99199130209851    1.20808811558965   11.99648069402612
H         5.85665345119995    2.64110534259619   11.55177104226241
H         5.14606966623990   -0.68156892041940    9.88685722101169
H         5.65597230000091   -1.83701545912300    5.82723676827413
H         5.79385409456134    0.30986968185366    3.89040561809338
H         4.60008017894769   -0.69423519126852    3.05684249543088
H         1.08247760796017    0.08438767071574    6.55760172054374
H         4.26861074385426   -2.59322301435697    7.76058089701354
H         3.29206336489323    1.54792403138647    9.48795407840491

