39
CSD_code = VUDTOE | q = 1 | S = 0 | Stoichiometry = C14H20ClN2ORu(1+) | MND = 9
Ru        6.44780438193513    7.42580892436730    1.06910313617110
Cl        6.45996516887647    9.74946844944210    0.95095218222150
N        10.01522301167079    8.79293535005448    2.70742296191046
H        10.71825101892805    8.67915465428039    1.99125093182786
H        10.23160039303326    9.37646286610229    3.49803050577303
N         6.50051651189875    7.84404836903187    3.16968770191503
H         5.68940956486612    8.43472578696382    3.37476161576761
O         8.51623739583982    7.68529797590804    1.46886251431940
C         8.78401743342848    8.34393959570227    2.47947485201829
C         7.71845660803660    8.62057794277357    3.53486986591899
H         7.48552360328839    9.68980527723907    3.48962661691442
C         8.13114159831323    8.16011328591519    4.95308130032412
H         9.06140201937874    7.59333567196200    4.91361788150126
H         8.26823311759539    9.00213410666245    5.62676099164471
C         6.98388335287878    7.25118053359698    5.40108103524293
H         7.31260140521447    6.47533076339156    6.08683554350626
H         6.19766063388428    7.83096533849003    5.88474667275323
C         6.47992462187998    6.68684504192378    4.07545076484033
H         7.18123515672738    5.93628256405737    3.69524242612206
H         5.48177511304196    6.25533086047514    4.13893378697668
C         4.47396878339045    7.15162173761975    0.02183185781473
H         3.58329659011089    7.77027530644816    0.01569083007558
C         5.45297231585451    7.31804153164624   -0.99650804382925
H         5.32040816177883    8.07642285304393   -1.75976269758571
C         6.56189207541229    6.47250217257774   -1.01151945780669
C         6.69063059021937    5.42074854992627   -0.04851101204588
C         5.71385177244810    5.22430204067727    0.92893013262169
H         5.76099293810880    4.37685618147194    1.60165126256808
C         4.60991046536127    6.12070496809300    0.97416475431339
H         3.81127949306426    5.94761649732429    1.68900134972529
C         7.69087405009694    6.39602177159016   -1.99460687263420
H         8.07566433046241    7.37483235433421   -2.27749786614512
H         7.33536427893071    5.89548282182042   -2.90042747249601
C         8.73192412243127    5.53516979949108   -1.26235899474311
H         9.35138745955608    6.18096359520374   -0.63716981768131
H         9.37489441067962    4.98772537291455   -1.94665159371066
C         7.90641812823773    4.60438126676516   -0.35997574607062
H         7.59215696648051    3.71049577844575   -0.90787670676218
H         8.44995095671384    4.28169204226111    0.52720280669300

