35
CSD_code = VUDWEX | q = 0 | S = 0 | Stoichiometry = C12H15ClMoN4O2 | MND = 8
Mo        5.66265846488371    2.36963369695875    3.15843270976211
Cl        4.21848197974513    3.36283300841067    5.11517206284620
N         5.83383025383215    0.63718008724438    4.42802761816151
N         5.24706197924914    0.63941904122427    5.61937631887929
H         4.67353768525831    1.46168591489701    5.85297653313088
N         7.26451989443115    2.99938270017995    4.41705516119471
N         7.08013360309419    3.73833464627269    5.50809842356153
H         6.10938459251260    3.97536032884465    5.75563316055083
C         6.93254930801519    1.74018624938574    1.86172168883785
O         7.66825550174775    1.40058901721273    1.04332800313550
C         5.69762287015028    4.06204632542178    2.22321401241266
O         5.72711277809903    5.04415168093091    1.62900678821451
C         4.83201117128666    0.81272555373516    1.67002102814094
H         4.94519741503352    1.06017961331056    0.61683487272062
H         4.97887136614731   -0.24661734655584    1.87278771409620
C         3.79710094068720    1.47000525489734    2.39125127481366
C         3.68144581992208    2.83889597080458    2.05298574911969
H         2.92274987909590    3.42132912142552    2.57033813915198
H         3.79565022288676    3.12044906592284    1.00891209844643
C         2.82907524345199    0.75412137767628    3.29240410653564
H         1.94453125695952    0.47326812327706    2.71583353295063
H         2.50132571600313    1.39609511823259    4.11024647829377
H         3.26506062597759   -0.15777929338332    3.70257303992022
C         6.54560137348790   -0.47588410576663    4.35861415863521
H         7.12165259376853   -0.71096361457848    3.48365348864793
C         6.40518292060608   -1.20981709331631    5.53978039150749
H         6.85451684967265   -2.15087196520681    5.77944174261893
C         5.56140771543506   -0.45466787326077    6.32628060739620
H         5.17743979920280   -0.62956001144844    7.31079293032394
C         8.56751003897554    2.76190440182706    4.33806524019699
H         8.98058044126069    2.19165623966386    3.52728507905957
C         9.22969451185606    3.36498772774608    5.41036593504273
H        10.27965416377034    3.35170535740269    5.61565824017421
C         8.23741030165652    3.98463568171484    6.13866493242432
H         8.28598072183632    4.57299999889748    7.03236673909448

