53
CSD_code = VUDWUN | q = 0 | S = 0 | Stoichiometry = C18H26MoN4O4 | MND = 8
Mo        9.66655487395159    4.41396303789876    3.65985584579718
N         9.55212835795434    6.16653054530160    2.37745469924572
N        10.74194678558446    6.71591877169655    2.11221772470992
N        10.00418794476610    5.90184704897703    5.17897681012439
N        11.04716828402424    5.67952463904766    5.98546422398945
C         7.81712123697981    4.22898080248527    4.12441380873876
O         6.72146531608175    4.00232307054718    4.41244059693762
C         9.92980382305986    3.06712136453645    5.02781008532749
O        10.00005752828776    2.27698384877404    5.86286325441041
C         8.56466620032146    3.44146266838482    1.86441596335020
H         7.82388448007518    2.70162630597715    2.15614573001421
H         8.24644716747231    4.04923016632736    1.02110016182717
C         9.92845394991822    3.08907695238017    1.91916928149497
C        10.25433796056980    2.27750103143653    3.05307930263087
H        11.29569730864049    1.97290801465974    3.14582932411760
H         9.56194120980679    1.47191838114756    3.29413284712648
C        10.90247867945565    3.39931861614149    0.81624568606142
H        10.97215274428292    2.54270898965052    0.14129527377933
H        11.89771840146634    3.59750609168052    1.21301262423309
H        10.56990789305630    4.26137024281594    0.23485217023589
C        12.87861200776073    4.16926174735579    3.96541759101561
O        11.95239738408534    4.68798817174701    3.28521500781849
C        14.20224199902295    3.92516852567303    3.24089899153660
H        15.03034166487267    4.11861640015716    3.91767890018876
H        14.28184509519770    4.55180430471073    2.35453037424382
H        14.24512705243111    2.87872770182512    2.94135881941012
O        12.78592079862493    3.87173471058316    5.16257492882665
C         8.64860058618636    6.89110886029985    1.72757451826790
C         9.29397750628699    7.92360959249656    1.02747837563526
H         8.83165105656035    8.66993594358157    0.41464265589237
C        10.64082266639954    7.77539295771988    1.29161648247664
C         7.18765088988928    6.62095825912431    1.75775312659835
H         6.97030497864538    5.79658883872875    2.42973170567387
H         6.83212814122647    6.36899513720740    0.75927430641632
H         6.64725666522629    7.50678437753815    2.08720735272863
C        11.82187022341442    8.54795717303189    0.83148709985889
H        12.42806150972679    8.86154730742187    1.68059900966991
H        11.50029856471186    9.42855374634808    0.28257326006995
H        12.44612460773694    7.93868120828699    0.17730214488743
C         9.39685055943750    6.99935334779608    5.63290539515263
C        10.08626471737086    7.48209386646998    6.75164383026464
H         9.83994975099366    8.34569953486962    7.33455360035690
C        11.13942403004415    6.60683426084479    6.94903874964954
C         8.16311947879248    7.56119769197697    5.02172016422041
H         8.39994423346625    8.15196921090479    4.13652399092446
H         7.66002503914097    8.20507679653059    5.73865835656164
H         7.49608558621465    6.75126526903253    4.73192147956506
C        12.20966567170793    6.57005489244090    7.97663895551744
H        11.78693540069015    6.33922159168633    8.95355025132605
H        12.70970005936877    7.53447668370073    8.04538787634519
H        12.93717863050952    5.80364939117376    7.72222638373717
H        11.68942977301549    4.86942377456313    5.80178188202265
H        11.57027352548590    6.23434813430170    2.46595901898929

