47
CSD_code = VUDWIB | q = 0 | S = 0 | Stoichiometry = C16H23ClMoN4O2 | MND = 8
Mo        9.39876776999848    9.00319394968642    5.64343081988372
Cl        9.46858367161952    7.03198571748334    3.85473652888857
N         7.28686903361787    8.57479343788766    5.74621824575991
N         6.95003327125204    7.33573158022492    5.37421161249065
H         7.67646513466229    6.77593761111577    4.90879910277210
N         8.66685500092077   10.08648032140348    3.93696935196043
N         8.03806360522958    9.41245068503500    2.96328964372641
H         8.16113974308550    8.39005209292512    2.95495353235704
C         9.38919828668053   10.52690665369105    6.80005024299543
O         9.49129875406899   11.40109108073234    7.54531234753884
C        11.22075538877308    9.48491408016185    5.20558652411706
O        12.26885192206407    9.87783076182850    4.90982221373925
C         9.36662882794417    8.34848305782618    7.85815448420628
H         9.98384626381675    8.95275484350935    8.51883115862858
H         8.42277529144379    8.05346424714000    8.31555499117352
C         9.99508747030034    7.40666534952938    7.01491317996460
C        11.23888893842953    7.89406615545200    6.45861335162039
H        11.77224255453498    7.17954223602468    5.83054766349767
H        11.90628274968996    8.40430417542284    7.15538211124581
C         9.57990534927417    5.96275653110555    6.94389325101399
H        10.15647667945596    5.38944385049638    7.67416308261669
H         9.76962538951967    5.53259888844570    5.96140901767172
H         8.52231771839672    5.84931602898070    7.18676226326739
C         6.16888808711659    9.17405119190933    6.13944526104498
C         5.09424315128925    8.28349101505261    6.00832089015965
H         4.06839777439749    8.47307509922330    6.24930165872071
C         5.63204566954632    7.11394894303513    5.50319719886068
C         6.13705083551954   10.58200705555381    6.61141021450503
H         6.91957416563990   10.75102067821641    7.34759816493241
H         5.17079338223081   10.80627467706437    7.05500449138816
H         6.30664002970680   11.26231566314686    5.77606088248322
C         5.00541652395208    5.81168359167664    5.16524091954316
H         3.97185257690599    5.95809833017724    4.86318013487533
H         5.01525176851133    5.14795468337327    6.03020095542923
H         5.55133067286715    5.32688039798958    4.35893850214509
C         8.61935435528230   11.37373054739207    3.60390987013063
C         7.94549828191470   11.51026336171889    2.38281733931057
H         7.74676708854564   12.42154553500950    1.85705491181387
C         7.60618966646298   10.22833280998808    1.98948268498847
C         9.22333150022265   12.45211335547250    4.42475790401271
H         8.60844568641838   12.66748638492840    5.29704735133724
H         9.31609352259395   13.35872817654306    3.83259569004710
H        10.20631222588352   12.14336965627570    4.77549485953000
C         6.92250200788320    9.72687512097313    0.77135535990341
H         6.52702486849684    8.72862885584208    0.94275932520525
H         7.62577635439308    9.67991289761024   -0.06008578987324
H         6.11076098943502   10.39264863571991    0.48860649837679

