32
CSD_code = VUDXAU | q = 0 | S = 0 | Stoichiometry = C11H11MnN4O5 | MND = 6
Mn        2.04639773323377    8.91569384867327    3.20470136125881
N         1.83715832487961    8.13762038083111    1.30474791783972
N         2.84620115530030    8.08899821936907    0.43117792082321
H         3.76319581134292    8.42836548246564    0.69615202053440
N         0.73752958337518    7.48161792278173    3.93025125708709
N         1.10215589929068    6.35907493806207    4.55761928151821
H         2.08002582034225    6.14588145766498    4.69864302210175
C         2.31020993583387    9.71250479826282    4.76550279663366
C         2.92755229453434   10.35032153955721    2.29422459713386
C         3.51425580498109    7.99169370151621    3.51909799167133
O         2.54925726206420   10.25743966792013    5.75519973999076
O         3.96934238713829   10.56214067710753    1.76023930880626
O         4.47349201232483    7.38369343089321    3.77512810771000
O         0.36319208595547   10.10901190291513    2.76758344521210
O         1.90204404260572   11.47119374980205    1.95461605972002
C         0.67646420802783   11.17418730226676    2.25504393732400
C        -0.34076721025042   12.23321155842418    1.92154716503386
H        -0.16788515045246   13.09585817760307    2.56205537365501
H        -1.34567745790678   11.85341499130056    2.08301664770136
H        -0.21500417678670   12.55120780775264    0.88945429949905
C         0.76439860190265    7.71312844725174    0.65486118534064
H        -0.19388923064605    7.64725975658922    1.13529922099855
C         1.09154217571250    7.38939487985377   -0.66583062860657
H         0.43302280567410    7.02164368679145   -1.42497553343546
C         2.43908828861674    7.65007713782067   -0.77041856316796
H         3.11104190512112    7.55086111785140   -1.59815061897935
C         0.03574119261374    5.64824612182644    4.96709977629229
H         0.13602658389792    4.72040564015714    5.49227359568420
C        -1.08077240993146    6.34855649767597    4.57722164156917
H        -2.10641560081385    6.08601650959230    4.73252470021234
C        -0.58527229525633    7.48886124016809    3.93467971823926
H        -1.13945238272463    8.30031740925154    3.50331325459735

