44
CSD_code = VUDXEY | q = 0 | S = 0 | Stoichiometry = C15H19MnN4O5 | MND = 6
Mn        6.21946952854012    2.69391341572771   14.19215275645974
N         4.24745706734142    3.04538202909412   13.67183584308933
N         4.04863927266850    3.99724098247059   12.74933946170051
H         4.85692805919825    4.34574262911449   12.23928960936001
N         6.26852136207082    4.68706123888106   14.83733303771972
N         7.28519505699674    5.44875496822814   14.40212022404771
H         7.96354499612183    5.06818591104221   13.69942624804797
C         5.94177467546820    2.02617359853862   15.81382505559704
O         5.86859044170212    1.53153090337091   16.85516674717870
C         6.22254318379027    1.05492253674435   13.50322924852690
O         6.29807979949562   -0.01027524801003   13.07874385378560
C         7.97049451446887    2.47692089562320   14.47091463135053
O         9.07563078038793    2.22965644277282   14.64865015756989
O         6.59359857611041    3.45781458383535   12.21245233111291
O         8.57925980462779    4.43752831192299   12.32019336472349
C         7.65230056080898    3.91501244771279   11.68984297286868
C         7.72756848825205    3.82859919917556   10.17027003198265
H         8.38263883547542    4.60515810107047    9.78562434399580
H         6.73594711932828    3.90775182160012    9.73055415045729
H         8.14384280572776    2.85691064212004    9.91063309475672
C         3.04391230530079    2.61866091494403   14.04129838144699
C         2.06174139636608    3.32307808363674   13.32804717050722
H         1.00122830480108    3.20219961381257   13.40920829880646
C         2.74179989188411    4.18860484279701   12.49593262387059
C         2.82613116404355    1.55096970566113   15.05104754853936
H         3.67291132260376    0.86659325897658   15.06229795725888
H         1.91882774621874    0.99948017290920   14.81728681034831
H         2.71670635467447    1.97850359723651   16.04734612362618
C         2.25833379933545    5.17511909035840   11.49825447481734
H         2.61927773411816    6.17463675318546   11.73939654609635
H         1.17245230634624    5.18828429006439   11.48537179707317
H         2.61625165671184    4.91795578871732   10.50164815683893
C         5.52947784444606    5.45838427449731   15.63741996736471
C         6.09012990099356    6.73825138921764   15.69509427331016
H         5.72363487279787    7.57423078798706   16.25459866739018
C         7.21385854971352    6.69414738898540   14.88750425381386
C         4.30549251107965    4.98381017085872   16.33803242698811
H         3.41993283998878    5.14178630483305   15.72068167700873
H         4.17499892862118    5.53576478881341   17.26580169762546
H         4.38780342141043    3.92150649071230   16.55988539334008
C         8.22526615883691    7.72721018137896   14.55424431498763
H         8.83425530527497    7.39399309540257   13.71746107074994
H         8.87760407641194    7.90560367056325   15.40858926907200
H         7.74174667944307    8.66783993342243   14.29795393479133

