67
CSD_code = VUDYOK | q = 0 | S = 0 | Stoichiometry = C26H36Cl2N2Ru | MND = 9
C        11.39287398831439   13.31747700930008    3.22805838901924
H        10.78059900079832   14.09643432002316    2.78747052372288
C        12.04825088707538   13.57328559076351    4.46676640666292
C        12.89056155889459   12.58955326495660    4.98634845356435
H        13.42731478069923   12.76677811122281    5.91167651805513
C        13.08025500604128   11.36222632804918    4.29844590016356
H        13.76772769360726   10.63070248034841    4.71228182810917
C        12.49988128492283   11.12459849346162    3.03782691990305
C        11.62611274012103   12.12617754528880    2.52309224285463
H        11.20549499610206   12.00985474359809    1.53048889946379
C        11.81698902264199   14.87056754289168    5.17512605697365
H        10.82664302042408   14.85136186712169    5.63815413197632
H        11.84546793004592   15.70393436269069    4.47437048946426
H        12.55680545719402   15.02913917375157    5.95663110374233
C        12.93682814171586    9.92349146636653    2.22903109842010
H        13.13372588013849    9.10373714846617    2.93007036432127
C        14.24990658006683   10.27184452228436    1.51571452537765
H        14.60465851138325    9.41733670296295    0.94438544163532
H        15.01775946536181   10.55010275863857    2.23411047455396
H        14.09972224408159   11.10616281947815    0.83272880748566
C        11.89790492690751    9.45134857353409    1.21214197963985
H        11.82507156983039   10.14486287059668    0.37697125209075
H        10.91725788494439    9.35670980457529    1.67269648247152
H        12.18942851569960    8.48232461203097    0.81309831829440
C         9.39252987581949   10.38420862203870    3.80120099364307
C         8.05435577917626   12.22420814624488    2.75993005239291
H         8.53854570245737   12.55038247074732    1.83629442865531
H         8.38132483692881   12.84683034623057    3.59540090645597
H         6.97608305964879   12.32330165110742    2.64654960001943
C         7.65406337152137    9.80668043862558    2.52498935903665
H         6.79875129687635    9.95632597171084    1.89887092678301
C         8.23350540721363    8.66929685105219    2.96951751516633
H         7.97604516178731    7.64250815373996    2.81247535027716
C        10.15951668294163    8.06479466001077    4.38577358497043
H        10.63060990673138    8.53868148371068    5.25354058545586
H        10.95467332768049    7.79938209838356    3.68773479140538
C         9.38452836865233    6.84391418801499    4.81508555910208
C         8.38038418939207    6.97886597292196    5.77764684634480
C         7.63864287319143    5.85617237572490    6.15797432339455
C         8.00579032649773    4.59062176341494    5.69544488314023
C         9.04013421682471    4.45804446808148    4.76613541116015
C         9.66974830282058    5.59512759228434    4.25741170459041
C         8.07469643453142    8.31554456853134    6.39226442669476
H         7.18972811402901    8.75831427018808    5.93211064604259
H         8.89017753457867    9.02299353021535    6.28604029249590
H         7.88731669187814    8.20579955076565    7.45726670298718
C         6.45611604023437    6.01202139253673    7.07619519177020
H         5.61508848382871    5.41888896958898    6.72231666769806
H         6.12670394822666    7.04353390324535    7.12157607032560
H         6.70481848187667    5.68733760072902    8.08661522113353
C         7.31203295046698    3.34865161165680    6.18597910669834
H         6.97857959579273    2.73837685981188    5.34799188559845
H         6.45242564728461    3.57556543841331    6.80435008539981
H         7.99840974353816    2.75273650643119    6.78822939388192
C         9.46584878659391    3.08977936016766    4.30506199940111
H        10.52750337915017    3.07092140148980    4.07502161239308
H         8.91257804394918    2.78834450569292    3.41395010122818
H         9.28634439829677    2.34732564006085    5.07580495991297
C        10.64207502552669    5.46259279979225    3.11310875319019
H        10.54928277139578    6.29798312869475    2.42212087013599
H        10.44619395402025    4.55839494212962    2.54537456479038
H        11.67074735307184    5.42475521171138    3.47299547596679
N         8.37501077095132   10.84908575342592    3.03988898441127
N         9.29362718553229    9.04007777496376    3.74891486786491
Cl        9.18889118984209   12.71548662898248    5.77292672576860
Cl       11.10735752856107   10.30911583650647    6.55097440416883
Ru       10.86407217357150   11.56411344787637    4.56825756008883

