87
CSD_code = VUFBUT | q = 0 | S = 0 | Stoichiometry = C37H42Cl2O3P2Ru | MND = 6
Ru        3.76854432144452    3.38290795146180    3.43936266137171
Cl        5.60641344402816    2.21906164133317    2.56899504724792
Cl        4.92396372945477    5.44503326724322    3.25884854286953
P         2.96597276875485    1.28088605537955    3.88287008038219
P         3.00147756856117    3.75536372988331    1.31324109281088
O         4.82730579887037    2.96180492717579    5.47672303740258
O         1.93415865928188    3.45408223740974   -1.34391218512206
O         1.64285965270772    4.82980662594111    4.94296231075676
C         4.15231088304855    0.69739150816720    5.17096304493177
C         4.36657546729296    1.81938486510186    6.18587160129646
C         5.39469284676213    1.41538767301349    7.24858580096287
C         5.65706394745911    2.58150163263891    8.19843324720582
C         6.07745615528340    3.79679272908984    7.37734677402041
C         5.01342124636957    4.08588912369729    6.32386806713215
C         2.99715007163768    2.19135281307718    0.33553867427384
C         2.91473383801672    2.45201630671545   -1.16102035435026
C         2.56551933806594    1.19231259361611   -1.95773370918304
C         2.43854256163583    1.55449323809343   -3.43695545333451
C         1.42956756814035    2.69116230505470   -3.59213327071171
C         1.83206012060985    3.85765651765340   -2.68867966869929
C         2.42393669931513    4.27998577431311    4.30362593496692
C         2.86993595769681   -0.15382778988119    2.76466770779969
C         4.03638028061044   -0.70747210187098    2.24096033020134
C         3.96259095904663   -1.75292991651492    1.33865211072519
C         2.73180984723847   -2.25132226626616    0.94454528664025
C         1.56922144224055   -1.69594734490217    1.45321651008783
C         1.63416895536864   -0.64948537167141    2.35507949703259
C         1.33698455595140    1.23254286958313    4.70149495395400
C         1.02773186850302    0.46342412930408    5.81716818575901
C        -0.24311332452476    0.51670384618230    6.36396283690122
C        -1.21635967185384    1.32390624848572    5.79912907828307
C        -0.92022058258104    2.08049465091956    4.67636637440554
C         0.34982849474644    2.03612842291825    4.13443689893286
C         1.32358704795687    4.43673618909180    1.35624423532913
C         0.17665298236716    3.75687704594092    0.96957613121669
C        -1.06509248278641    4.34239968363989    1.15227039739237
C        -1.16974263529293    5.59990504762926    1.72190956476991
C        -0.02719721926273    6.27946901941547    2.11699550622584
C         1.21345066197803    5.69776317617330    1.94346392291184
C         3.95992270904698    4.88735938574176    0.26382380529135
C         3.38612849408290    5.96548241096821   -0.39916757431809
C         4.16983642501170    6.77060273466236   -1.20693357509641
C         5.52155553790116    6.50956195574775   -1.35655221723864
C         6.09388261155714    5.43224746242176   -0.69983545421496
C         5.31790846566521    4.62099301431353    0.10624745810416
H         4.99691606799347   -0.29501825167510    2.51111550836237
H         4.87139024800855   -2.17736229520844    0.93822490320242
H         2.67732894067546   -3.06745729335613    0.23923749946422
H         0.60667631866064   -2.07832016590235    1.14536144784306
H         0.72336654696952   -0.21707296999570    2.74529338313103
H         1.77002527934752   -0.18023908568127    6.26639349129502
H        -0.47375348188642   -0.07648742543449    7.23703517791548
H        -2.20366449513506    1.36309811809668    6.23471436347926
H        -1.67288535845802    2.71141585981459    4.22745854865461
H         0.59797906241458    2.63127965504607    3.26282295038821
H         0.25087182669954    2.78089493018911    0.51609058838014
H        -1.95664769471022    3.81133359134596    0.84982815877092
H        -2.14155979990869    6.05035851512574    1.86272713881619
H        -0.10694828709168    7.25781784827562    2.56718352954146
H         2.11532297612694    6.20633949596570    2.26596779194612
H         2.33098794041927    6.16860182002208   -0.29266894444578
H         3.72141881430706    7.60995990274136   -1.71936407011146
H         6.12933869922886    7.14800254719650   -1.98150370329866
H         7.14890646701514    5.22787031291141   -0.80940047503613
H         5.76773902262209    3.79056443887970    0.63377881767063
H         6.32374593660755    1.14059163641712    6.74400894088940
H         5.02645032964994    0.54518955811432    7.79478180510724
H         6.43472505976922    2.31377991509417    8.91535156330227
H         4.74578537760473    2.81218339526917    8.75684399881370
H         7.02552400365078    3.59344974683883    6.87600912964224
H         6.20286671666246    4.67457857484608    8.01114052837126
H         4.05693057601861    4.34357703159431    6.80794091078346
H         5.31868304051999    4.90821761308883    5.66792596253583
H         3.40576518093595    2.07037349144681    6.67890263752423
H         2.79427844119462    4.27659795716178   -3.02433866395969
H         1.07817144406573    4.64768679244128   -2.70520573936154
H         0.43845578840594    2.34155283093800   -3.29639095228216
H         1.38345498364795    3.02946744202164   -4.62762125445050
H         2.12289771867066    0.68435041084356   -4.01511944588769
H         3.41165350304343    1.87782893653709   -3.81457376877735
H         1.61622390462259    0.79341568449717   -1.59288178454385
H         3.33800009424986    0.43814372434777   -1.80395709117234
H         3.88567238356407    2.83770663662038   -1.51895688234159
H         5.09983013501631    0.50371513241921    4.65724906681272
H         3.81401918953607   -0.22304892898164    5.65241762089628
H         2.15066988241157    1.59071480497995    0.68232690477090
H         3.91930914941056    1.65726204699771    0.58402716006191

