81
CSD_code = VUFDUW | q = 1 | S = 0 | Stoichiometry = C36H36Cl4CuN4(1+) | MND = 4
Cu        3.53978038136959    2.60785451576506    6.09643081132862
Cl        0.68876633025909    2.99746937852324    0.07127578094295
Cl        6.11971309736965    8.46971338774060    7.96709953034007
Cl        7.96201485331576   -2.32819058972158    5.33305924271131
Cl       -0.64827935648809    1.36663250221047   11.13692520672983
N         3.11538827273816    0.61521711778295    5.84284265994571
N         4.03483046074476    2.10390288222405    8.02291233048149
N         4.42392751194761    3.27639834219208    4.36870538307004
N         2.58517335276103    4.42603489633127    6.13235579947558
C         2.33635705251586    0.71346735165823    3.60124314240580
C         2.66509320933717    0.34718653737705    2.29468130666060
H         3.33386341986318   -0.47901425393939    2.11382089819145
C         2.16899883474981    1.04780949923564    1.21268500890557
H         2.43846262272794    0.76304758542915    0.20788977846936
C         1.30844683313612    2.11805284655891    1.41846118517174
C         0.95011504188440    2.48375663822554    2.71001205270832
H         0.26323534139521    3.30111825864793    2.86472666072839
C         1.47024023363309    1.79102231482522    3.78459061873293
H         1.19255209141831    2.07421935855393    4.78601618659228
C         2.87853531707709   -0.01645564097417    4.75390692540540
C         3.12021506002871   -1.48672613104244    4.59864360400667
H         2.60511798124698   -2.03096906921111    5.39056504645811
H         4.18444856541509   -1.70368736271882    4.69445769598987
H         2.75738414164349   -1.85848074889943    3.64726896540401
C         3.66233539140741   -0.08138170353035    6.97664043753451
H         4.71691850879891   -0.30425003990464    6.77372882643315
H         3.14928183016904   -1.03309194613256    7.15710650775986
C         3.56212617617784    0.76363100829154    8.24770615182618
H         2.51406379379453    0.81247615353719    8.56728778208732
H         4.12835078869466    0.25888807327472    9.03897349684424
C         4.26094629406563    2.87961102132809    9.01724108447795
C         4.08133280631119    2.44725037575958   10.44026741719114
H         4.64097394738640    1.52935550216180   10.62138964218340
H         3.03062730460330    2.23093819227071   10.63546655295047
H         4.43395314475775    3.19670257888412   11.13938859476738
C         4.72449601743048    4.25055157316713    8.77121763093331
C         5.53080878067709    4.54285625820936    7.67141991123222
H         5.82108071535296    3.74427400473568    7.00931974081777
C         5.97492112412494    5.82687250464193    7.42866941112840
H         6.61752877754064    6.03553527187030    6.58755256468261
C         5.59773078000351    6.85683052939853    8.28140388773376
C         4.79644709715176    6.58840334274572    9.38324821092337
H         4.51257611679395    7.39006852444632   10.04656205578453
C         4.37719060990671    5.29567927345541    9.62955480579125
H         3.75283578428419    5.10935529893815   10.48860663605145
C         5.81983536436557    1.40024217469482    3.95400865474059
C         5.98816422653095    0.31210708921153    3.09556521850095
H         5.59021005613808    0.34353834380805    2.09395743502739
C         6.63694008876720   -0.83253307186496    3.51586376323947
H         6.75138237668481   -1.67176044288982    2.84809223667869
C         7.15554419677982   -0.89974814091869    4.80227210176385
C         7.02095267774316    0.18195503481007    5.66367115229254
H         7.44619058298974    0.13505450386146    6.65399994098035
C         6.35063530155684    1.31197267210976    5.24062524222203
H         6.24756564119084    2.15115592698321    5.90792983248366
C         5.10956965631123    2.60862940839539    3.51723462688251
C         5.23235947029963    3.00997864260683    2.07920799986538
H         5.57769085137946    4.04195450690483    2.01221171351292
H         4.25797919590091    2.96118401375324    1.59224490004596
H         5.93837359534098    2.38589786866973    1.54346094536888
C         3.70750958303498    4.45314637591579    3.95389726004731
H         2.83776292319710    4.14174960396339    3.36278579387955
H         4.32331818100534    5.10448090931804    3.32307710926956
C         3.23160533316667    5.26579695817523    5.15912402000846
H         4.09480373361059    5.74865786874834    5.63292184436399
H         2.56514022066939    6.05686099157484    4.79651665316528
C         1.90859572773474    4.95141810762713    7.08499146774884
C         1.72649184548458    6.43113984877306    7.23116320083366
H         1.34038131844888    6.84994311057868    6.30158309884818
H         2.68690186527473    6.90839493962225    7.42817329847229
H         1.02910722993548    6.67731876348648    8.02359014923359
C         1.27030954013517    4.08119715221857    8.08017748725049
C         0.79394931471202    2.82031407123952    7.72198706230289
H         0.88723055644969    2.49760690735706    6.69855568637145
C         0.19118118380910    1.99200470876073    8.64696463823226
H        -0.19423657076797    1.02854562637772    8.35188516501618
C         0.07224688866339    2.40846553045168    9.96704988282241
C         0.53773528593788    3.66081982463236   10.34544114835140
H         0.43565309438727    3.98266534287987   11.36977688369457
C         1.11808745299503    4.49084236881165    9.40623637324038
H         1.47602557061451    5.45796704502880    9.72092884325045

