63
CSD_code = VUFMEQ | q = 0 | S = 0 | Stoichiometry = C19H33BCl2N6PRh | MND = 6
Rh        8.78337217499659    4.51803363859520   10.52664997413734
Cl        9.62375377317501    6.49562992864029    9.72963535339824
P         6.80834324008459    5.31577244358599    9.66228255774898
N         9.37670366917767    3.43324785293750    8.60948792485145
N         9.46920517672056    2.10157181571998    8.80269163214509
N        10.59930809204545    3.76222380757396   11.10919881877074
N        10.80223843749449    2.45204637991970   10.86249665563546
N         7.90810217363691    2.80863745392481   11.33826336202777
N         8.47414936581136    1.62815830195572   11.04993208526924
B         9.74442058091269    1.54552992922452   10.20652351532969
H        10.12937262892815    0.43483996956834   10.14403430143387
C         9.56764308454624    3.66770745308353    7.31329939001220
C         9.72820196771517    2.44596762736078    6.64736311630492
H         9.88414807292586    2.30424298418196    5.59689911535212
C         9.66723700952837    1.47634241821842    7.62517692373049
C        11.71605912440314    4.26482534697067   11.63345987368214
C        12.66231550247629    3.24161878235981   11.72851147424279
H        13.65959993583607    3.32540026177407   12.10986838170860
C        12.05048928880548    2.11049421781275   11.22998128734706
C         6.87845468062046    2.57724058131558   12.15483940147427
C         6.78174684243598    1.20272828644576   12.37864980736536
H         6.05706430174057    0.70265510277615   12.98840265184448
C         7.81551020703517    0.63171035740730   11.66448639786754
C         9.73226473629013    5.00561113609020    6.68454681740424
H         9.67907662530055    5.79128672533819    7.42975736120392
H         8.98975434215398    5.17426152552397    5.90526865975302
H        10.71481978782243    5.04452126531928    6.21399144726702
C         9.77798632029581    0.00147465727445    7.47716502527428
H         9.77209048540681   -0.25738170103931    6.42150414553920
H         8.94604218594106   -0.49781924782054    7.97039725611181
H        10.70271053569056   -0.36484973151065    7.92069932860931
C        11.93440948705397    5.67172136087889   12.06154945540497
H        11.46876046550263    6.36695318256164   11.36811427268273
H        13.00308434430403    5.87002873489751   12.09958195158788
H        11.52303759402196    5.83309886153933   13.05779371356950
C        12.62298881344171    0.74537206062267   11.09424730177666
H        12.63809355559563    0.43513871585991   10.05078265257025
H        12.03733350872434    0.02063191797252   11.65684600945786
H        13.64102791659568    0.74545931355255   11.47476373480006
C         5.98955956488532    3.59290493344645   12.77861040014124
H         5.93633605736656    4.49282424476499   12.17547419724136
H         6.37241269860832    3.85699370257803   13.76454580597879
H         4.99067408952568    3.17711226353174   12.90412047223361
C         8.18184913468489   -0.80447289725324   11.56152513471696
H         9.17200362021226   -0.97823132285877   11.97904546504262
H         8.19120686462923   -1.13068725970750   10.52336305776763
H         7.45976905407845   -1.40064232500961   12.11318581365921
C         8.59559161671302    5.49628243493648   12.34147982548391
H         9.27452965900858    6.35162900780273   12.36985893184923
H         7.59478153643643    5.85889899162298   12.57976783317797
Cl        9.06474390797451    4.47780088082161   13.71563274678603
C         5.95475015739832    6.72662923966924   10.47635393484403
H         5.11342792244872    7.04506299843158    9.86247328598365
H         6.67551621392792    7.53976609576219   10.55553568248473
H         5.59362163427376    6.48053414312702   11.47160205871626
C         6.87576882642422    6.01343204351188    7.97202491275601
H         5.88904262135378    6.38382188339738    7.69453457136310
H         7.17816672433677    5.23592906757775    7.27671720763037
H         7.59647313980430    6.82629873552238    7.94282900970634
C         5.44771733305670    4.10997420886097    9.36378914362655
H         4.59130376859649    4.61931215867558    8.92404996422734
H         5.13922065003961    3.60365276387749   10.27207667950964
H         5.81761316901339    3.36174028850559    8.66346073038319

