52
CSD_code = VUFNUG | q = 1 | S = 0 | Stoichiometry = C25H22AuCl2NP(1+) | MND = 4
Au        7.77403421318176    2.82487857225177    0.11504200724147
Cl        7.91655564807501    2.51900555585263   -2.17092555602238
Cl        5.43948129232736    1.51712688336305    1.92314111691102
P         7.04983122771119    4.78464074630414   -0.77276971580436
N         8.37075778189284    0.93535842008957    0.82202428301383
C         7.58231195463032    3.13608222253044    2.12449252217992
C         7.08808980820181    1.79433253757147    2.62394851771685
C         7.92686943728301    0.69570581679639    2.06240173792585
C         8.19573006062586   -0.50478479147056    2.70005318742155
C         8.93566969054810   -1.46767262653668    2.02881574430433
C         9.37795433957263   -1.20480033268782    0.74027945510183
C         9.07182838155737    0.01724381246571    0.16852012358371
C         5.60460074798296    4.48295130805760   -1.79411023040534
C         4.52896307290738    3.83576769204670   -1.18519055153159
C         3.40634784174163    3.53443371923376   -1.93177587815919
C         3.36051761724022    3.86946025258867   -3.27746929975691
C         4.43839679109333    4.49730240721362   -3.88145712564263
C         5.57093731607869    4.80186758177890   -3.14696257065755
C         6.54968082388461    5.95801955444054    0.51382981485943
C         7.55698248070526    6.37536156654244    1.38448232293169
C         7.27515819564077    7.29778019287270    2.37179961755089
C         5.98841966516832    7.80365080937260    2.49592860980045
C         4.98913787541190    7.39120294907255    1.63006770819284
C         5.26219326955297    6.46729593236054    0.63497429406628
C         8.31108496459453    5.70542915741123   -1.66297636459654
C         7.92584709444794    6.94412868138919   -2.17802036271013
C         8.85108624762225    7.71374202934094   -2.85627371663854
C        10.15444259603163    7.26173939858986   -3.00377203848215
C        10.53845577984610    6.04263428161535   -2.46860779033207
C         9.61953272094055    5.25842692883418   -1.79342855576319
H         6.88868263660826    3.92547117795095    2.40286471567535
H         8.55002326234290    3.35550024552912    2.57413264936269
H         6.97671522643280    1.74161824325849    3.70905030813532
H         7.82727486400098   -0.67917995302609    3.69827141121483
H         9.15714354194068   -2.41089764671921    2.50373716018997
H         9.94626994621520   -1.93230730725612    0.18441117622860
H         9.37863102868877    0.27630248949340   -0.83438248111512
H         4.58765883627346    3.56765756908575   -0.13680417107440
H         2.57075584981190    3.03240018677630   -1.46835135810080
H         2.48424210303165    3.62908271211266   -3.85950983183210
H         4.40260140890810    4.74221344926040   -4.93184459041190
H         6.42491396185356    5.26782698078048   -3.61756845410045
H         8.55542679247972    5.97058552361169    1.26869687115200
H         8.05358250072306    7.62505103100562    3.04374961188401
H         5.76700435380839    8.52367001607961    3.26837580976077
H         3.99144144365662    7.79142591872747    1.72567877094100
H         4.48322812618240    6.15344507439731   -0.04508477852366
H         6.90840797054746    7.28988701014677   -2.04310819043824
H         8.55730470199303    8.66682317009717   -3.26863634675277
H        10.87379045823997    7.86517882857115   -3.53542936841859
H        11.55554951712907    5.69942114090178   -2.57900982624703
H         9.90715253263941    4.30081287992525   -1.38190039383338

