32
CSD_code = VUFQIX | q = 0 | S = 0 | Stoichiometry = C13H13N2O3Re | MND = 6
Re        5.53634026423855    6.41895728616406    3.83418844198640
O         3.97816470179330    6.81712233144258    4.25186222116102
O         6.57224813275623    7.71165213945863    3.71914080282323
O         6.26438590039966    4.97877712380169    4.22858554385889
N         3.75068409408163    4.21542006839422    3.02667473097889
N         2.38559206094321    6.35946823071072    1.84672606593854
C         4.25547487826888    3.05267460417393    3.39466549825554
H         5.30044020838581    2.90360304764681    3.15804139971981
C         3.52359739442300    2.07765183198741    4.05836684178532
H         3.98234983864180    1.14261995793187    4.33792256762858
C         2.19861923723291    2.34712748227838    4.36405998851702
H         1.59689826457747    1.62500432533586    4.89666580561858
C         1.66045288542776    3.56157810181351    3.97772750029195
H         0.63103031499109    3.80642399099577    4.19158778835545
C         2.46795476327166    4.47107753671266    3.29168416356001
C         1.91480540838865    5.74900551482323    2.84991693447189
H         1.04391817671867    6.10662647222754    3.41348206378628
C         1.95519973899898    7.60901076163758    1.45116716746588
C         1.77715576316138    8.64866518612362    2.36622486207460
H         1.96111049297620    8.46024821347430    3.41338849479599
C         1.43334725965862    9.90961630897326    1.91949473207674
H         1.30783303961967   10.71293683755652    2.63047828307425
C         1.24543927990552   10.14615562222812    0.56735682143034
H         0.96846766359171   11.13153280103213    0.22359660989881
C         1.42586853442917    9.11760113970972   -0.34504509703159
H         1.28670198507965    9.30253438984707   -1.40014415937662
C         1.79412648347421    7.85962827207521    0.08716605968089
H         1.93617176123365    7.05035101904908   -0.61284632397729
C         5.48627725314717    6.27805459380194    1.63159422945541
H         5.81967771578368    7.22290232681011    1.20413583841582
H         4.46342005931627    6.06317556092291    1.32177505959960
H         6.15024644509013    5.47279692083785    1.32135906368158

