92
CSD_code = VUFQIY | q = 0 | S = 0 | Stoichiometry = C42H40CoN5O3Si | MND = 6
Co        4.03045008013312    2.19880644764967   11.60368505507214
Si        5.13409275765871    0.58399134188735   12.79103866444328
N         5.46760011504850    2.56073454754666   10.35240218115562
N         3.49017807912940    0.87080904778845   10.35180794608257
N         4.80072774745975    3.49678668219814   12.77454991699166
N         1.75464714850801    2.87385574833197   13.41335959122243
N         1.70524842747356    0.81455508494709   12.83188933277301
O         3.62580809280787    3.73944722378553    9.94524815286633
O         5.10168920795004   -0.44008567561617   11.26793692610789
O         5.25703527233711    1.78003616535145   14.18688645497480
C         2.43297704267225    1.95090385806566   12.68966540133284
C         0.63580824355937    2.32699278316601   13.98656723762119
H        -0.03276333447837    2.90813346958730   14.58814787176146
C         0.60412358587051    1.03027954928270   13.61892224480811
H        -0.08496896951908    0.24658559153074   13.85665941438580
C         2.07612447491186    4.23304634123322   13.67594446536047
C         1.74900307529289    5.21844999689934   12.74473840209164
C         2.03307033442060    6.53813194423192   13.06253948770194
H         1.79564520378612    7.31208100972157   12.34694468905203
C         2.60848970108420    6.88811787230588   14.27541560589050
C         2.87696211737210    5.88982999955691   15.19959845940884
H         3.30169746501060    6.15098909224152   16.15815737354782
C         2.60802469112499    4.55769610619935   14.92418425914103
C         2.85664052092425    3.49925720981072   15.95665384409802
H         1.91529152322091    3.18065098048704   16.40682594700748
H         3.49570090577878    3.88539703343754   16.74621181165373
H         3.33371673098964    2.62470978891029   15.52045911285329
C         2.90288237781726    8.32464804616565   14.58399431498328
H         3.41563540933778    8.79717392484674   13.74817652430326
H         3.52256355231823    8.41279079828856   15.47283979367262
H         1.97516857505038    8.87107735334387   14.75589424696267
C         1.11182423701521    4.86116939881320   11.44206760004799
H         0.67373397385230    5.73982439350411   10.97586859646286
H         0.33656923552661    4.10820192194533   11.57691570021776
H         1.86833957852973    4.45512527731831   10.77163109882768
C         1.96079385845002   -0.49032760113650   12.33074589148426
C         3.01905022994140   -1.23359598960947   12.85651904688707
C         3.20013676209347   -2.53060254861227   12.39418517698663
H         4.02525811204970   -3.10696067904696   12.78559479013655
C         2.36339509292866   -3.08885766666522   11.44318998818016
C         1.30921108709030   -2.32955671417820   10.95152122200052
H         0.64986006754358   -2.75479796551837   10.20859534828845
C         1.08619276176559   -1.03441345190377   11.38942617236918
C        -0.06916662573767   -0.24534712266824   10.84672175076303
H        -0.32888693598724   -0.59906253761624    9.85221010684366
H         0.16961662282292    0.81369913580030   10.78803946146259
H        -0.94657668313828   -0.36313245808010   11.48406118562822
C         2.57927661557293   -4.48302070263171   10.93765954896946
H         1.70378376202322   -5.10013487627291   11.13645306152055
H         3.44256522634990   -4.94026179390144   11.41341587142131
H         2.73959047813739   -4.47108716415779    9.86040124991289
C         3.97811224606689   -0.61341563394116   13.79492404906972
H         4.58925902694168   -1.37584371349555   14.26776852863693
H         3.46944447126937   -0.05749867414815   14.57779394110942
C         6.98192432041413    0.11910726064119   12.98937379151869
C         7.38807263158337   -1.20747122485828   12.88688502666376
H         6.64653100204791   -1.96206714035167   12.67769583132512
C         8.71517878726518   -1.56763510523729   13.03553079095553
H         9.00655318091559   -2.60587327880079   12.95571802823305
C         9.67319403061952   -0.59962123230919   13.28501478193769
H        10.71149311333453   -0.87673062127284   13.40099244592786
C         9.29053933334575    0.72689092052634   13.38079303126426
H        10.03142505473336    1.49181397326923   13.56806592849830
C         7.95924164229666    1.07611941119689   13.23576627598873
H         7.67629523996125    2.11619382660739   13.31145552139845
C         4.23630332134729   -0.24856561269886   10.32960105099846
C         4.08220337178896   -1.19403358945716    9.30295186202538
H         4.70776970964799   -2.07078591746165    9.32503355236552
C         3.15600746704758   -0.97461269141421    8.31190602055233
H         3.02808127623918   -1.69076347329887    7.51377324321164
C         2.38934044850939    0.18517973913271    8.35280184103751
H         1.65366573009839    0.39713827873458    7.59414086267208
C         2.59518808433560    1.07282040090594    9.38544525489706
H         2.04141232662778    1.99933248662635    9.44173347991888
C         5.34649595182999    3.04338339430222   13.91784711258842
C         5.99359351165077    3.91734039544472   14.80727527369380
H         6.41328151029589    3.50043992426727   15.70826304565376
C         6.08971044222206    5.25230404648856   14.49774655501400
H         6.59501365741898    5.93519549026912   15.16428024083487
C         5.53035946759574    5.70497625313299   13.30686375937029
H         5.58445055829918    6.74266290291999   13.02269962825430
C         4.89820816864212    4.79746432888755   12.48834505606851
H         4.44227057918924    5.11540100242711   11.56245399410973
C         4.79504695716994    3.44612969468329    9.56619127403876
C         5.42751238864644    3.96921764936572    8.40807894824072
H         4.87777747592209    4.66828637969573    7.79668704085897
C         6.69804032367526    3.56935774484176    8.09968605631708
H         7.19486042042724    3.95584875707394    7.22004018078357
C         7.35624680577509    2.65264860521838    8.92547305353625
H         8.35717423406799    2.32011652652100    8.70298261674678
C         6.69741279499873    2.17537933248011   10.03529421602602
H         7.16697132384784    1.45732896451968   10.69495920991364

