50
CSD_code = VUFXOK | q = 0 | S = 0 | Stoichiometry = C20H24AuCl3N2 | MND = 5
Au        2.44217159362828    4.86969694075787   11.61144672396128
C         0.46521176560821    7.03293166505653   12.10796216442591
C        -0.48493890172942    8.01511161823358   11.78207366926649
H        -0.84422521018973    8.67247598889661   12.55655459266501
C        -0.94216908554087    8.12888682638428   10.49903318385557
H        -1.67447739551576    8.87736008063790   10.23364618455430
C        -0.45141475656204    7.26278922464220    9.50758379768751
C        -0.89024784023163    7.33886706491338    8.15786421590292
H        -1.63026321377052    8.08386155931317    7.90709724001044
C        -0.38963761968562    6.50393545830010    7.21661128838822
H        -0.71676659857479    6.56117807149018    6.18898973810210
C         0.58517795375838    5.53122205565884    7.56117691493183
C         1.14209491925028    4.64916644036197    6.61603852646398
H         0.82278924615617    4.71172618317750    5.58529748280667
C         2.07622676377227    3.73203101137390    7.01198949672918
H         2.51663664038614    3.05243037703473    6.30130582421425
C         2.46700880919817    3.67763344244603    8.36526345335318
C         1.04205675609646    5.41969802189707    8.89319457778930
C         0.51402206505554    6.30548770330044    9.89239942144168
C         0.97631936566257    6.93070601673624   13.51348596695596
H         1.55855464864785    6.00558198526924   13.60067507770833
C         1.91526007951580    8.11198935815742   13.78648839307811
H         2.73848461466609    8.11194426757651   13.07562836041994
H         2.32555001064266    8.02649279277608   14.78919484569082
H         1.38355333639092    9.05770346139927   13.70729088854740
C        -0.15840604333097    6.86314987479143   14.54548879519995
H         0.29695361600211    6.69898264243454   15.52362910670042
H        -0.68739339569309    7.81771690733707   14.58942706551865
C        -1.14012841384908    5.73552884101753   14.25104704631706
H        -1.85766522908876    5.63891881238740   15.06212759587111
H        -0.61492188569302    4.79022811441881   14.13925301804415
H        -1.68812850692398    5.92500030996913   13.32970341873327
C         3.51608347466630    2.72399596305069    8.84721205178485
H         3.38748599793325    2.61034637418047    9.92647951894673
C         3.40683037653616    1.34942790752834    8.18945288757037
H         4.00742167660778    0.63283244147086    8.74142075593768
H         3.76065588001854    1.36792261664104    7.16083747907219
H         2.37513810426382    1.00420309081884    8.20234652729421
C         4.88845153390413    3.38394710340493    8.60424697622226
H         4.86377217959064    4.39016525107343    9.02847392039329
H         5.05813944327676    3.47651162236982    7.52756643477792
C         6.02787156799741    2.60903550397391    9.25093022373088
H         6.96052498841361    3.15312391430599    9.12205702171755
H         6.14178253072286    1.62508152252152    8.80338315341931
H         5.84295513773884    2.49427892824278   10.31583999086134
Cl        3.92832458482208    6.53682335309804   11.10449634183158
Cl        4.08308798719781    3.52422723895535   12.31616663135757
Cl        0.86079676508436    3.34608622451599   12.24227509946115
N         0.93325460036566    6.22485704460647   11.17164871233600
N         1.95523508280090    4.50770078109335    9.24949819795005

