81
CSD_code = VUFXAX | q = 0 | S = 0 | Stoichiometry = C40H34F4NiP2 | MND = 4
Ni        2.32207788061084    4.85364694575297    7.07542123960902
P         3.31880130659304    2.84082850048373    6.92191960606061
P         3.83325407461074    6.06446483072652    5.95936404764142
F         1.71964147356666    3.48201278018221    9.32289255778284
F         0.22471215734539    3.32259095836842    7.74483868169723
F         1.02844445141850    6.04692255126100    9.83810960365286
F        -0.75144815040808    4.81894824669884    9.80262943125712
C         1.08944433499477    4.22043555931926    8.33702603204110
C         0.23311008686804    5.31311807648358    8.99954532009507
C        -0.25627959771559    6.16423984727328    7.84740194025221
H        -0.64267367200427    7.11874701050876    8.20940632206838
H        -1.05384941674172    5.61365999545418    7.34738729488555
C         0.97786808590771    6.32102343461620    6.95044699679776
H         1.48859456344929    7.25942262213085    7.20940444238948
H         0.67390049491267    6.38357845544360    5.89636336874075
C         4.91035560879242    2.31267565163705    7.63459137138161
C         5.58626116194775    3.18710588713852    8.47750965862051
H         5.14670613553160    4.15036996192362    8.70417435388459
C         6.79860824892033    2.82321276550618    9.03727839330225
H         7.31749689328891    3.50889913009202    9.69126593370832
C         7.33948971941326    1.57927435075435    8.76025899053911
H         8.28694253013769    1.29288592024053    9.19267285533488
C         6.65654373363959    0.69228711063300    7.94192289348555
H         7.07069199106710   -0.28559285907886    7.74275491629781
C         5.44256944052875    1.05059450260195    7.38606806419084
H         4.89514864752277    0.34653327636531    6.77457686976383
C         2.35405309170495    1.31633139872951    7.21766218432184
C         1.51691151350591    0.76902472196295    6.25282941448999
H         1.44112355272335    1.22344082524735    5.27553029515951
C         0.77225870940882   -0.36037939585387    6.54212613286122
H         0.12504086325948   -0.78108325921094    5.78617204986384
C         0.84759715303310   -0.94494640261317    7.79445433387244
H         0.25977989356487   -1.82303262593559    8.01815112287657
C         1.67104652038907   -0.39476269134353    8.76326035428784
H         1.72494667194011   -0.84066056777019    9.74541692443911
C         2.41979239920250    0.73088002407511    8.47949044649056
H         3.04987573490890    1.16915511247571    9.24078860592549
C         3.53434639677372    2.75835649361370    5.10954943400129
C         2.50078300912474    3.37539492083302    4.40324170146839
H         1.67823607666816    3.82740065271221    4.96698980568344
C         2.51445197576036    3.40485964711911    3.02245548596185
H         1.70595434329970    3.87168010444720    2.47761106301509
C         3.57358731816310    2.83153818870422    2.33577679124917
H         3.59366706236691    2.85699553002230    1.25625953032546
C         4.60943798036673    2.23443505641852    3.03289196920270
H         5.43912212876029    1.79835853877695    2.49595744747849
C         4.59386539637258    2.19379732162013    4.41713653877367
H         5.41467989370963    1.73847338774669    4.95062726252832
C         3.25570888444640    7.52138563989278    5.02181042917250
C         3.57378508777702    8.83204588080659    5.35131719458103
H         4.20896050938508    9.04045972174750    6.19988513693750
C         3.06762234109600    9.87816088634996    4.59847930662585
H         3.31956627138292   10.89533879048399    4.86077090749489
C         2.23888180692299    9.62749298606166    3.51854773646188
H         1.84615836730373   10.44734169884521    2.93567027650298
C         1.90271912543184    8.32257562221081    3.19506046129785
H         1.24438883880835    8.12367084484401    2.36174708843318
C         2.40163186403119    7.27667515409432    3.94752122476908
H         2.12616024043715    6.25589063990023    3.71546949470402
C         5.19131603716362    5.47883259695532    4.88094397618340
C         6.22032228869991    4.74927513520645    5.47135346840118
H         6.21378577888207    4.58483739922689    6.53952562572898
C         7.25204629657897    4.24100731854761    4.70710542020215
H         8.04382761769683    3.68030025428867    5.18264534043338
C         7.26746742206482    4.44837799751949    3.33759494164002
H         8.07290903818362    4.05180031794229    2.73735993121428
C         6.24605116952022    5.16792060818344    2.74254522044220
H         6.25340574169125    5.33536740315637    1.67532272960359
C         5.21127265683711    5.67872661195964    3.50618308755675
H         4.42591321507800    6.24404396422714    3.02710649976979
C         4.79612239203674    6.78608902625160    7.32732423674327
C         5.98933363221787    7.47952831193989    7.14387776092794
H         6.38605260224462    7.61434053621488    6.14662320503425
C         6.66502236277218    7.98513837173796    8.23924284022223
H         7.58944807810376    8.52592343906550    8.09611804965528
C         6.16176093794142    7.80024939095910    9.51849320152244
H         6.69589607361366    8.19873077651474   10.36846483759726
C         4.97973569582073    7.10328372497253    9.70754032120254
H         4.58626349742225    6.95229627275016   10.70139152744412
C         4.30056943654215    6.59645438912399    8.61397399413126
H         3.36772482266656    6.04159579373221    8.75367444764671

