65
CSD_code = VUFYIG | q = 0 | S = 0 | Stoichiometry = C22H35Br5P2Pt | MND = 6
Pt        2.06678265110042    9.90754441668106    2.32219857568547
Br       -0.24356542827802   10.90584427239329    1.63509257816744
Br        2.83395591580029   12.20325351564252    3.10408529835632
Br        1.20989289404903    7.59462402914615    1.74334506429270
Br        7.55644323285505    6.75169163818753    4.87194611106704
Br        6.97708805531954   12.51117520044051    0.44793502045207
P         2.61696409365409   10.14326200427274   -0.02710171283392
P         1.15751608991116    9.89297648947986    4.54636976643441
C         3.87143481267455    9.02826415230706    2.98214643620027
C         3.73002781144965    7.93388280686316    3.79733275322468
H         2.75687607651192    7.53481895744670    4.04242266842636
C         4.82858319212291    7.26273280789346    4.35013365955204
H         4.66124299720383    6.40371499415173    4.98108826348080
C         6.09394960588585    7.69853125337981    4.08540262012852
C         7.61587260639182    9.29212959938199    2.96637399070132
H         8.46357500881454    8.77982423537670    3.39515903678580
C         7.82540408091107   10.37158491935979    2.15743075731509
H         8.82228799402863   10.71924181409345    1.93781522446381
C         6.71383285212325   11.02436138396554    1.61547482030489
C         5.44117593992506   10.60597240950690    1.88123076148413
H         4.61196446692999   11.15246296471771    1.46683974234882
C         6.32090190233968    8.81896899798899    3.25865870982825
C         5.18524125776815    9.49102065987146    2.70350765260026
C         1.25583350645652    9.55448388346310   -1.12726185642238
H         1.04100696501726    8.51725377884471   -0.85804271100227
H         0.36717814963447   10.13998543121289   -0.87985350527029
C         1.51875003326617    9.64615705251843   -2.62531356294373
H         1.75643630789918   10.66068659828193   -2.93593630582952
H         0.61498766151531    9.34285214772959   -3.15036015003811
H         2.31971152639530    8.98178758218995   -2.94084670742690
C         2.97506820189663   11.84833096471563   -0.63891371102639
H         3.82775448841944   12.25261663365509   -0.08765678905159
H         3.29040656100200   11.73023360196317   -1.68079155625844
C         1.80992340246166   12.82401374448214   -0.53960731913366
H         0.92648895758889   12.45124570690118   -1.05253636864321
H         2.09460300155953   13.77259489427091   -0.98993815380766
H         1.54859686256282   13.01637200855532    0.49759058465534
C         4.08484778365042    9.23246701698107   -0.68469847470551
H         4.08984556832198    9.39838472820306   -1.76525534940159
H         4.98994138840579    9.68831528841323   -0.27994334723962
C         4.07627061630699    7.74144549890197   -0.37827555605610
H         4.11861068979841    7.56519452536473    0.69512229968051
H         4.94331900475470    7.26480503702428   -0.83158367635013
H         3.18101081349871    7.26109724593854   -0.76666976687689
C         0.16634833811450    8.40482276815767    5.00438831575864
H         0.72758678119665    7.51011068385502    4.72456111120537
H         0.05498927708360    8.40626049711579    6.09109093826662
C        -1.20138234257536    8.36883720657450    4.33038203111355
H        -1.84857444875302    9.16374536427218    4.69165411185959
H        -1.68204557175874    7.41568603256095    4.54007197122553
H        -1.11435824222729    8.46275124025418    3.25100625216488
C         0.01842539049694   11.27965332143206    4.96438078964248
H         0.54231119705687   12.21416337785906    4.74541927959900
H        -0.84149960931881   11.22327313960079    4.29404543788169
C        -0.45409268244373   11.28238022402086    6.41341391478402
H        -1.03353700878884   10.39373132011819    6.65200041120730
H        -1.09571305340198   12.14790056082772    6.56708099293897
H         0.37578087590777   11.35786060872738    7.11234752811827
C         2.49421079263432   10.08004938710809    5.82382340570662
H         3.45764876964112    9.97485994110789    5.31883432809243
H         2.43306112840986   11.11550219022200    6.17141978704275
C         2.45207200521095    9.12099215442091    7.00592353230584
H         1.54859014101024    9.24496347260591    7.59815217841137
H         3.30453443930623    9.32021835502490    7.65302277383557
H         2.51700422329450    8.08653126197238    6.67676509351796

