51
CSD_code = VUFZON | q = 0 | S = 0 | Stoichiometry = C14H32Cl2P2Pd | MND = 4
Pd       10.72426735500621   10.72387217837388   13.98167657602661
Cl        9.28050438724441    9.95565518789428   15.56958765434064
P        11.48381073276745   12.19591805199561   15.46838684839242
C        13.01035991013207   12.98666088932071   14.74629776336272
H        13.13567388334826   13.99674878217141   15.14732716886484
H        13.85541248078344   12.38374041146134   15.08976439330667
C        11.99669212248832   11.57656810022953   17.13410354710404
H        11.04459437646912   11.35602649605087   17.63108289074076
C        12.73320004604813   10.25084854712564   16.95426319695382
H        12.82320489677877    9.73534358962594   17.90805727093753
H        13.73613939608962   10.40169538986016   16.55740919020794
H        12.16571997378591    9.60784405224057   16.26997194402367
C        12.79438975817152   12.58531671702830   17.95300588506286
H        12.94611195062068   12.20281257603051   18.96076641097955
H        12.27054217921803   13.53618910032744   18.02556814525954
H        13.77282108252155   12.76367981478034   17.51135686498757
C        10.30109681661798   13.59970144140724   15.77115186504183
H        10.86785731150980   14.50626756239546   16.02305616263562
C         9.54005807402105   13.80550703380276   14.46091980454531
H         8.75155857141601   14.54599156361031   14.58394071366974
H         9.07533672765273   12.85337868646628   14.15669475520272
H        10.20782335579808   14.14519467097520   13.67045145909561
C         9.32077298516245   13.25624569753201   16.88916964847890
H         8.51062517218165   13.98338409972384   16.90452744033157
H         9.80013648037329   13.26749706260078   17.86509640244802
H         8.89409821251859   12.26854819980858   16.71261099150916
P        12.19578983697977   11.48377995245510   12.49456117081156
C        12.98658278861019   13.01027796708097   13.21673403966932
H        13.99666382071362   13.13562249955358   12.81570364811557
H        12.38368454996862   13.85534095618469   12.87326439991896
C        11.57653368743888   11.99667779149544   10.82883556052462
H        11.35598944356925   11.04457337853324   10.33187661497165
C        10.25083922413135   12.73319629629386   11.00874429951068
H         9.73534557214795   12.82318568908813   10.05494381030901
H        10.40170443313194   13.73614220596869   11.40558335920319
H         9.60784313264173   12.16571810018623   11.69305363276107
C        12.58533585848949   12.79435746989503   10.00997901506472
H        12.20285620987300   12.94609464484779    9.00221505971916
H        13.53620020015190   12.27049018857405    9.93743317139283
H        12.76370851321773   13.77278085259257   10.45164319442517
C        13.59964209516425   10.30112207520291   12.19186334413743
H        14.50623048401732   10.86785845568032   11.93997230672410
C        13.80549709128512    9.54004630483391   13.50207109638292
H        14.54599367574439    8.75154724063325   13.37906944344627
H        12.85336155728245    9.07531967816602   13.80626648549735
H        14.14515754687480   10.20782235448483   14.29255233496838
C        13.25621073919000    9.32080221876276   11.07384271514992
H        13.98337553806011    8.51068221649732   11.05845216200390
H        13.26740915904679    9.80017992396292   10.09792287377034
H        12.26853701151656    8.89409247177140   11.25043655746631
Cl        9.95589959202688    9.28085316441177   12.39323471055013

