73
CSD_code = VUFZED | q = 0 | S = 0 | Stoichiometry = C27H42P2PdS | MND = 4
Pd        7.97986716105530    3.06260587800480    4.68729566869385
S         7.54904110963553    2.58884370228720    2.44147334922975
P         8.56461305892404    3.78409836036798    6.76392062877703
P         5.77660382270643    3.61581238925841    5.23585941876926
C         9.85436582660395    2.54958814853373    4.19880628969201
C        10.05721058490258    1.17150068470892    4.13095039415696
C         8.86235739077121    0.24735264144107    4.24124433876854
H         9.12567622144906   -0.67949174044896    4.75680687090732
H         8.03669538211512    0.75584500731412    4.79578143337861
C         8.40715882339774   -0.06036975535253    2.83930405382310
C         7.86743557521038    0.92952180131153    2.00645130015888
C        10.91443741161333    3.40269369515136    3.92485280748517
H        10.77224541591653    4.47875114651315    3.91834882387206
C        12.17008425849226    2.89004082363672    3.63047253052571
H        12.98924710054358    3.56470107629566    3.42182795431665
C        12.37484361514960    1.52222232886803    3.60305522407735
H        13.35458556356111    1.12392725444372    3.38105001329603
C        11.31431891455800    0.66375969275341    3.83374429803144
H        11.45785327470251   -0.40674151311350    3.77343933540494
C         8.57123870401443   -1.34214446630986    2.33388673687941
H         8.99176127241229   -2.10396199789147    2.97728149361341
C         8.21290027710839   -1.66797271265853    1.03933936641273
H         8.35230736152034   -2.67452500475655    0.67428160991882
C         7.68091232773219   -0.68722285566273    0.21715026543603
H         7.39929399954110   -0.92093211620870   -0.79976505792425
C         7.51165207526233    0.59210228049991    0.69796894886654
H         7.09833643842852    1.36602541904203    0.06707464048859
C         7.01235908194577    4.18162677365944    7.70671336775163
H         6.72913615050136    3.26015343320872    8.22281329061032
H         7.22319479521169    4.93411072199561    8.47215457395150
C         5.87280461903043    4.63419022251398    6.79369255705195
H         6.04557380952403    5.66457855884524    6.47230890778781
H         4.91841221143674    4.60931787967481    7.32631746323132
C         9.51800191825896    2.80970533988358    8.03263372322965
H         9.33938047058890    3.24748330028924    9.02320584036583
C         8.98861222591018    1.37741692703599    7.99798311847180
H         9.52484214259068    0.75422553654170    8.71169553647723
H         9.13756704131467    0.96446888908213    6.99921047856885
H         7.92822636109723    1.33339067976629    8.24084317894535
C        11.01032056510902    2.81042228139598    7.71444600222950
H        11.52142308615073    2.07704224661098    8.33625966084469
H        11.46313367958390    3.78101159559124    7.90152905721057
H        11.17068698289372    2.54162750531292    6.67012696055786
C         9.48744517668589    5.39234412319974    6.61167326926618
H        10.49650017073134    5.07355345563089    6.32043759100227
C         8.89628614087405    6.18767934077031    5.44716210302675
H         9.60061687426331    6.94180030381044    5.09916214147063
H         7.98583812955805    6.69891983111333    5.75507228235515
H         8.66128736728739    5.51128793109581    4.60643413657360
C         9.57711258715262    6.22825534288105    7.88366349797351
H        10.27698978119952    7.04879943815579    7.73354337537049
H         9.92684649401421    5.63483476290996    8.72595996476388
H         8.61200591001282    6.66099539919554    8.13976316500813
C         4.59762381312956    2.22897774603953    5.63654339928046
H         4.42820584801873    1.75807926299380    4.65866201039183
C         5.31447508163598    1.21066451571182    6.52172568576818
H         4.79901626835272    0.25197272485225    6.50488710906377
H         5.35455125826336    1.55317481355374    7.55480521287032
H         6.33782729038807    1.05883874790140    6.16113140631050
C         3.25815499550348    2.64354089359842    6.23403903704360
H         2.59584777651069    1.78014382801259    6.27867935706831
H         2.77380353978365    3.41136459241385    5.63576593996895
H         3.37869076582192    3.01933733349292    7.24831636155567
C         4.80737943536188    4.74082238892899    4.11491471799246
H         4.02663740244217    5.25649907205734    4.69026416046779
C         5.80162591074291    5.75683612847732    3.55160991087663
H         5.34230659123677    6.33968376644379    2.75525354131351
H         6.66364912390751    5.22622615912326    3.13073464712733
H         6.14684662954657    6.44950157069845    4.31686687946690
C         4.19185782324344    3.94175545652913    2.96944471636323
H         3.78063251756391    4.62010538499007    2.22357124319571
H         3.39020559466766    3.29029146893873    3.30916393980074
H         4.96331559371305    3.33821215699414    2.49071274280277

