60
CSD_code = VUGBEG | q = 1 | S = 0 | Stoichiometry = C32H25NRhS(1+) | MND = 8
Rh       -0.09823748471946    3.51135467102301   -0.37517328238491
S         0.76346714425596    1.27823506504138   -0.67445173959118
N        -0.98125703262013    3.37563293785947    1.43864064036082
C         1.39831138129805    4.00994291092385   -1.78415635525855
C         0.27555846838003    4.81273745098983   -2.13478598613523
C        -0.02806870339990    5.62248774230276   -0.99804903702921
H        -0.78852164814227    6.38981749374797   -0.98055679008454
C         1.11185894521504    5.58394339506283   -0.09176774337142
C         1.44012325998597    6.31256631098473    1.04987982941207
H         0.77633154685364    7.07828356348900    1.42213307158087
C         2.64621980883322    6.04998296883743    1.67378147816244
H         2.92661954048194    6.62038596497301    2.54580526099638
C         3.52555634856817    5.08152137396622    1.18743052201298
H         4.46794094494998    4.92499647448663    1.68899148050163
C         3.21916477214393    4.33505303389500    0.06449264221156
H         3.91897528322253    3.61363724866649   -0.33524244595352
C         2.00398425382653    4.57667374393921   -0.57565132746362
C         2.02701497433648    2.90345657838001   -2.53530750024407
C         1.84907862047161    1.61617908126172   -2.08416428832774
C         2.44622421698130    0.51881332452548   -2.72062668725106
H         2.25793904319953   -0.47546113562270   -2.34631763627466
C         3.24260504616739    0.72794311215989   -3.81047862222875
H         3.70657659868654   -0.10675480632419   -4.31308573592576
C         3.47078479308382    2.03102204820427   -4.30346925915139
C         4.29549984006640    2.26675402430811   -5.42282217221116
H         4.75360012030576    1.42177326362961   -5.91435370159450
C         4.51444538538440    3.53884631518016   -5.87374619396794
H         5.14820859652056    3.71083023683044   -6.72985276598498
C         3.92321095537918    4.63373283220266   -5.22430960480377
H         4.11462655518477    5.63170728596729   -5.58764664509582
C         3.11387328613765    4.44229583061247   -4.13923563623727
H         2.66615968216828    5.28479667863450   -3.63347955309455
C         2.86158092200224    3.14088211518189   -3.65748028285782
C         2.02014884867151    0.98550276842955    0.61338689086698
H         2.67510341324718    0.18700399441764    0.27643361924002
H         1.48601966469475    0.67352863449196    1.50614091510616
H         2.59146009760910    1.88967033422648    0.80791375462069
C        -0.40749426117748    4.86148115094068   -3.46098075169144
H        -0.05415330499252    5.74207730380716   -4.00009439316280
H        -1.48624283346987    4.94909177675565   -3.35156489450939
H        -0.16876524515633    3.98571697844359   -4.06064974514193
C        -0.31023064836743    3.64153578544223    2.55864800230597
H         0.74142599374898    3.89346977003290    2.45729297070911
C        -0.90879283404924    3.60846546290944    3.80239816646803
H        -0.33297601465954    3.83175519493460    4.68527715351774
C        -2.25936203980201    3.28741973207598    3.88535160916767
H        -2.75592607483877    3.25955624430768    4.84244099099157
C        -2.95261038233218    3.00136358924267    2.72633626535239
H        -3.99803565543446    2.74302356284915    2.75955553479485
C        -2.28965950818485    3.05001633019360    1.50079060823574
C        -2.84406047411110    2.73557625552651    0.19851457230449
C        -4.14720329443205    2.30504743959195   -0.05196243692259
H        -4.86009890482986    2.23971721774271    0.75504302307869
C        -4.51867624115309    1.95274423284991   -1.33370488864862
H        -5.52699242055351    1.62386076939129   -1.53059758398407
C        -3.59294044667948    1.99700515498433   -2.36457244776832
H        -3.87791858317474    1.69186804873789   -3.35986076230456
C        -2.29416505484952    2.42795527911047   -2.12766586496604
H        -1.58222202920182    2.42809002595900   -2.94160835613952
C        -1.92668723173063    2.83098782728477   -0.85930588423720

