46
CSD_code = VUGBII | q = 0 | S = 0 | Stoichiometry = C18H22B3FeOP | MND = 8
Fe        2.23947728519814    4.16254221030500   11.86979534292516
P         2.17895664911223    3.09020116187208   13.77935060355354
O         1.72920628740855    1.68340287996250   10.49292390516674
C         1.90496275161613    2.65129069876608   11.08578418374604
C         4.22146789269678    4.94431814903263   12.14176063459197
C         3.28357831244847    5.96814836161908   12.42061638658817
C         2.56404175812816    6.22627649126607   11.23363305203245
C         3.03915574182691    5.36343418002123   10.22287582843359
C         4.06597458501094    4.56813788017224   10.78763259517061
C         3.12343337162601    1.52788334760475   13.82477471614235
C         2.90537645138450    0.62761546644308   14.86334714898963
C         3.61390703826703   -0.55857520087575   14.91585366298825
C         4.54312390891062   -0.85603581515882   13.93129102733739
C         4.76469002982792    0.03624663989461   12.89518282279784
C         4.05860578213303    1.22502094434829   12.84282214457677
C         3.04807269925593    4.04431557678988   15.06523066500010
C         4.32141309028876    3.71149486467141   15.51999726298284
C         4.95093628800944    4.49398851903280   16.47149707424299
C         4.32408890395547    5.62102187443129   16.97576707905631
C         3.05844824618607    5.96325251053960   16.52478204547515
C         2.42656785056634    5.18239539249573   15.57664797983493
B        -0.22152232481834    4.28976189190818   13.00130900174393
B         0.29869664858478    2.86461558884354   14.24543950393252
B        -1.16231840973767    2.86037903498085   12.99176889388960
H         0.62276593431554    4.43022910469083   12.06505373488655
H        -0.29396735467277    5.28133047722316   13.63300770713393
H         4.98671281259245    4.59297475741434   12.81398462137329
H        -1.29956666975242    4.11947253938944   12.38048798436940
H         3.23330716517687    6.54312335781992   13.32881629595842
H        -2.14185994963913    2.72291991172890   13.62876992887466
H         1.82033751770778    6.99558333626735   11.10477349168152
H        -1.01698266146022    2.09598503193372   12.10766658505451
H         2.74787369260679    5.37859721543353    9.18666447258275
H         0.13623068630104    1.68371133574750   14.19274547961438
H         4.68881300810122    3.87322607356402   10.24766280061903
H         0.09021332475067    3.26835462906746   15.34188364113252
H         2.17411740138354    0.86899076374995   15.62245712384972
H         3.44118708340321   -1.25534751699609   15.72312468165335
H         5.09328264265447   -1.78465789130406   13.97104558481999
H         5.48859311902601   -0.19635114634880   12.12763456145551
H         4.22112039147856    1.93031520446736   12.03924347136723
H         4.81968751849663    2.83483328784721   15.13025471118457
H         5.93755754864711    4.22356516201859   16.81959069690289
H         4.81887493549207    6.23034762954849   17.71756798263473
H         2.56608991660142    6.84186640334326   16.91659535826531
H         1.43997109890289    5.44229768442826   15.22308552338728

