63
CSD_code = VUGCIK | q = 0 | S = 0 | Stoichiometry = C24H24N6O8Zn | MND = 4
Zn        3.88117821680783    5.02269569805856   18.58075934447656
C         6.50362441287044    4.23520661032008   15.60335206419356
C         5.53915363208678    3.36063393752890   15.12138133157435
H         5.58442318610734    2.77844646537589   14.22412980430581
C         4.49813515241461    3.39712486513465   16.04841610779837
C         7.82903291430090    4.61986112829179   15.05940069254899
H         8.32632856167010    5.30087702837873   15.74466056285143
H         7.71495662666863    5.10944277623655   14.09353319417230
H         8.45127739853018    3.73818381646955   14.91677954832343
C         3.20829631520412    2.66291360535372   16.03571028173620
H         3.12973563517578    2.02259662215899   16.91309011972911
H         3.13109924086474    2.05328765516583   15.14005982178371
H         2.38756428048617    3.37637369202623   16.06097694503360
C         0.68383464413842    2.82770066588096   19.92581067984534
C         2.76828971908010    3.01138912094282   20.67694621899257
C         1.54288669900914    2.37622311186017   20.91173906459377
H         1.31929831169296    1.68291470296019   21.69593923940379
C         4.03407003211671    2.86767091392484   21.43510726977504
H         4.74450679191816    3.61902396352805   21.10469839633649
H         4.45999311972233    1.87907756357820   21.26918989339883
H         3.84978530904423    2.98000530280706   22.50144816820602
C        -0.74317825966562    2.52166556822973   19.66033463506901
H        -1.03279891083422    2.88582425287107   18.67813808845054
H        -1.37686020741572    2.99643747534596   20.40861895234588
H        -0.91550236024949    1.44887611755902   19.70938591890536
C         2.36586826140112    6.60683459140216   17.43172316812437
C         0.02106898953134    8.60198765484397   15.25435036699074
H        -0.78368641524829    8.45651028341609   14.54991548068566
C         1.68561623360068    7.76494371076132   16.76898006169580
C         2.09538370590067    9.06363141796898   17.05898757726364
H         2.90269784906120    9.20875391219936   17.75966961261168
C         1.47093558441217   10.13463611724852   16.45235111793888
H         1.76584280669243   11.15244881381551   16.65764484369510
C         0.65029892503869    7.53723572351291   15.86651089578193
H         0.35567547405242    6.52093841527872   15.65471543312443
C         0.43670519345444    9.89449816808404   15.55424585015539
C         6.27836652629574    6.11213109043823   19.75059407748165
C         6.78297526629965    6.75139007360176   21.02088057767861
C         8.47326702801685    8.01551387019701   22.16845727118542
H         9.41442245757187    8.54344033534651   22.19143162776891
C         7.71501262449098    7.92654885522357   23.33099213385748
C         6.03080812095520    6.67437657106404   22.18979054489354
H         5.08503181334315    6.15574924449768   22.16759841258516
C         8.00087535643880    7.42557193367091   21.01388866539320
H         8.55958461223407    7.47648944182257   20.09212549329238
C         6.49356706032872    7.26127514602113   23.34951341834991
H         5.93146563282423    7.21822916952694   24.27005348137095
O        -1.12111433372786   10.76604115682872   14.14322588243880
O         0.16620164867702   12.12537029056178   15.19507920852966
O         3.32866941749162    6.84760871422852   18.20070995092162
O         1.96595944798674    5.44781038302144   17.21689790157050
O         5.24799077845353    5.38313287310721   19.87168459386233
O         6.90431840086003    6.30336591733929   18.70386390071105
O         9.26856303507778    9.11512458289473   24.49305602267833
O         7.52255607767797    8.43324334132923   25.54047802711013
N         2.65393014078487    3.80030972925847   19.61139302519034
N         1.39390340911038    3.67677579212387   19.17132221275332
H         1.12635357333678    4.21617047533267   18.35295771142504
N        -0.22055766096263   11.01101241514243   14.91729894021650
N         4.81773984870883    4.24205045522932   17.03028469835940
N         6.02834597219295    4.74119696958364   16.74348853323976
H         6.46487537845687    5.41263507535551   17.42096095678469
N         8.20355129745460    8.53656462871541   24.54147197843616

