59
CSD_code = VUGCUX | q = 0 | S = 0 | Stoichiometry = C20H35ClNPPd | MND = 4
Pd       10.42272431699026   10.09861206427214    0.67313502660322
Cl       10.48443088243444   11.76567997340357    2.31930829131762
P         8.26134491981868    9.69321589559432    0.50649132112805
N        12.59987026923366    9.97863371843699    0.54755670506310
C        10.51491528226689    8.81131775274012   -0.81665745793399
C         9.41329109311733    8.35188482623552   -1.53598073023179
C         9.59178706309608    7.49147297700942   -2.61037730234818
H         8.73449203001857    7.13075987233997   -3.16306795003969
C        10.86724192437207    7.09871034798860   -2.98024422157526
H        11.00361514586744    6.43338403292100   -3.82025241339129
C        11.96711303262497    7.55646374649090   -2.27662915657617
H        12.96256385348037    7.24713148222390   -2.56627615452654
C        11.79476015612686    8.40866119949700   -1.19313628882726
C         8.05095954985752    8.84843118355475   -1.12814232833263
H         7.30464424691512    8.04977867555173   -1.08972200095994
H         7.70805042676600    9.58415903623160   -1.86240014248770
C        12.96540742700313    8.86688412464123   -0.35698250571813
H        13.29297373590964    8.01194029004799    0.24749027110190
H        13.81109585737592    9.15397602669923   -0.99745932765353
C         7.08877701019948   11.16038441755750    0.43579219590749
C         7.83064863483072    8.38994622499598    1.79511786922487
C         7.87898053011026   12.16739120272035   -0.40936554928688
H         8.11296155547897   11.76610594010398   -1.39747995506046
H         8.81630589681853   12.41100755537612    0.10212022744346
H         7.31110291585876   13.08724992829937   -0.53925086871125
C         5.73804304976425   10.85407238201001   -0.20794425400805
H         5.13070229685334   11.75863337137313   -0.20681654327969
H         5.19903558247789   10.08758321011386    0.34208334939492
H         5.84496780888138   10.52784536738109   -1.23964754926762
C         6.89671965965897   11.74360099515771    1.83346294031315
H         6.44256002059577   12.73113606962050    1.76177855141051
H         7.86189025559516   11.85025481129353    2.32800634390348
H         6.24538090720282   11.11871686048783    2.44039980517452
C         6.36297733224612    7.97707217060272    1.80865827695126
H         6.22468919737953    7.14077563759208    2.49324453027342
H         6.03032218432040    7.66106878626604    0.82135091566555
H         5.72964872647543    8.79325112624012    2.14792935726663
C         8.27292708906600    8.92862538887057    3.15733587496444
H         7.61499050846099    9.71232392591242    3.52024595446679
H         9.28735030521762    9.34056214341250    3.07767513413422
H         8.28287584090536    8.12568243435808    3.89367857147193
C         8.72736252653464    7.19122964178003    1.46689931554663
H         9.77653955482647    7.51609989820800    1.43872431252766
H         8.47926969530715    6.74013816050069    0.50854602363384
H         8.62412902000220    6.42904821503195    2.23843292371616
C        13.05073586990326   11.27373934896771    0.02628754589120
H        12.92700121345803   12.01392881143900    0.82356236666061
H        14.11463369298832   11.23199412094440   -0.25449692839822
C        12.22419598586742   11.71712430117654   -1.17971489927429
H        12.31249057179535   11.00883703207827   -2.00350153776907
H        12.56881456791800   12.69159806567293   -1.51980312205255
H        11.16114155542332   11.80403660741069   -0.89081217980044
C        13.07473257603251    9.74381341819076    1.91952567054677
H        12.62801493727969    8.80025117994721    2.26602736749706
H        12.68392135276090   10.54965942476297    2.55036115223218
C        14.59359054889485    9.68126147724197    2.08681580759602
H        15.03830469352337    8.91203966778894    1.45838731377316
H        14.82533049201447    9.44814208653104    3.12304167585207
H        15.05345262379608   10.63657136670596    1.84678837885649

