65
CSD_code = VUGCAC | q = 0 | S = 0 | Stoichiometry = C26H30N4O4Zn | MND = 4
C         0.35839837727680    3.59030677347939   14.24114869678714
C        -0.26474167364442    2.26063933053410   13.95753288594904
C         0.02165740234696    1.15712820225762   14.75526535392428
H         0.69967634882418    1.27609550187067   15.58685065909928
C        -0.56387220019333   -0.06285355031635   14.48525173296111
H        -0.34085451925765   -0.91712051868931   15.10941880507151
C        -1.44506433893376   -0.21141020319963   13.41802520202534
C        -1.72722844676071    0.89493697701186   12.62621439661319
H        -2.41144934344661    0.79474362918171   11.79519170477449
C        -1.14560011616351    2.11973586811721   12.89138690091433
H        -1.36455534256953    2.98308759255088   12.28123446177133
C        -2.06281741302071   -1.54630037015534   13.13176720017313
H        -2.46588038356808   -1.98528700331302   14.04281400731267
H        -1.31072061691078   -2.23034085796576   12.73793461063450
H        -2.86236662284199   -1.45811533985798   12.40048584514690
C         0.90387875355587    6.42592587855816   18.33618041410385
C        -0.26173611700607    6.98665911793709   19.08044617721416
C        -0.05859389671099    7.89637959043454   20.11311867266456
H         0.95166868857029    8.18853292829047   20.35829788865737
C        -1.13567365984209    8.41286620657872   20.80489438247356
H        -0.97171748677334    9.11996304497269   21.60614153158530
C        -2.43518906672376    8.03478409951961   20.48301224868480
C        -2.63053138480351    7.12587811323051   19.44883491377856
H        -3.63588775976202    6.82558143614958   19.18856968539739
C        -1.55819153763274    6.60504749975312   18.75190688705437
H        -1.70540894359017    5.90025341339251   17.94787279513603
C        -3.59768624993504    8.58172686811009   21.25396470417986
H        -3.73992695510504    8.00557241695446   22.16907985544929
H        -4.51405923460155    8.52235114347217   20.67170132114450
H        -3.42296359878523    9.61793507439781   21.53570445849618
C         0.98943803885661    8.27754383439973   12.08692783406252
H         0.35192213564389    7.45830744188410   11.76567696957700
H         1.68952903595373    8.52122690216354   11.28974530598569
H         0.37162070534988    9.15504988840922   12.27173351956834
C         1.72011031180333    7.89177636828495   13.31962000427566
C         2.68648267534910    8.56380693565918   14.05559144760028
H         3.09817967999750    9.53131717129687   13.85347601209608
C         3.00858400653650    7.71854701936684   15.11760758390181
C         3.97519075745272    7.93461037335075   16.22307901724390
H         3.45831423078599    7.86681631803012   17.17930542844938
H         4.43564314849896    8.91435357776123   16.13292316577571
H         4.75221050055015    7.17158171100939   16.20220263673852
N         2.28299276576068    6.60314224999281   15.02141492646857
N         1.50992766918837    6.72581762187730   13.93402288659117
H         0.85542240458369    5.93464172261878   13.69971247104058
N         3.56204646884072    4.34704095357865   17.06947422049437
O         1.23360700752626    3.61357709630975   15.16647052361687
O         0.02727586971064    4.57101122209091   13.56171599304383
O         0.64495998598717    5.57731776426730   17.42806336417076
O         2.05362384245349    6.79419828147816   18.63077812840191
Zn        1.92635373268205    5.02952499887365   16.17160580359338
C         4.44209230080136    3.37195122020762   16.85153190983456
C         5.02630842195271    4.41434437095362   18.72362025888302
C         5.39229779673976    3.37913166130395   17.87682785541967
H         6.22760413042822    2.71836242438128   17.98600059594603
C         4.34727492137768    2.48049692160581   15.66934912379975
H         3.35239400996923    2.55616896973711   15.23878603148816
H         4.54597446055190    1.44976619953114   15.95415380535288
H         5.07856500024515    2.77245368619167   14.91616102006666
N         3.92809565196265    4.96638116710518   18.19849978327876
H         3.32279216399970    5.74624005629685   18.52566030453907
C         5.64060517609273    4.91255412415622   19.97934732636694
H         5.06102028501279    5.74456017079098   20.37019532965078
H         6.66163386279750    5.24450014438447   19.79816165576343
H         5.67314418256667    4.12087656738231   20.72590935773432

