70
CSD_code = VUGCEH | q = 0 | S = 0 | Stoichiometry = C24H41CoP4 | MND = 5
Co        7.08529804999565    8.79386946751356    4.06188597298673
P         7.13749505467931    9.86175699623216    6.02222651643986
P         5.13045945533657    8.71403473772830    2.94648525183884
P         8.99885450343914    8.55428775660788    2.87064233680814
P         7.00100165501744    6.78053064613261    4.92731168622487
C         7.10071441921008   10.59950375085334    3.39518113192529
H         7.27498159349626   10.76841580499578    2.32847677144219
C         6.87936643241599   11.68484728308574    4.12580879899508
H         6.87180330858723   12.68864826173410    3.70263522715444
C         6.61943727127294   11.58446049704218    5.59773337186833
H         5.55810258854654   11.73270826048161    5.82650444787462
H         7.19370071998803   12.32222338551135    6.16868478563462
C         6.21009077910088    9.52411498303453    7.56310207174492
C         6.81302043069511    8.89682573835831    8.65279561879145
H         7.87773420899034    8.70601817365030    8.63991997667384
C         6.06828804602010    8.53107993469113    9.75841167687721
H         6.55414188636810    8.05383141913995   10.59798889628679
C         4.70474255753855    8.77250682050263    9.79380680720834
H         4.12422402312468    8.48794431757619   10.65924828142425
C         4.08925206314354    9.37521367978729    8.70828501280520
H         3.02395051818845    9.55931759760580    8.72534412088285
C         4.83339524849291    9.73665390350097    7.60165379758821
H         4.34163131364034   10.18644860426695    6.75096549495280
C         8.77182999876573   10.22187954466744    6.76742139561021
C         8.91486377825030   11.11146224440927    7.82884280297181
H         8.04082389690383   11.58241737298087    8.25925429608435
C        10.16849250653590   11.38101514546627    8.34389885355897
H        10.27468153887930   12.07271291867556    9.16790695065895
C        11.29101697856298   10.76689105168900    7.80917272029481
H        12.26901167276334   10.98296218894124    8.21489535387127
C        11.15485711505733    9.87628199773275    6.75835061787301
H        12.02869225078279    9.39341466105474    6.34236166250339
C         9.89868599477299    9.60735669948409    6.24445407259508
H         9.76212623666367    8.91638645056597    5.42244249501597
C         3.74134580103254    9.39856092035853    3.93544004943278
H         3.99014392593925   10.42756724958242    4.18666869007304
H         3.63595758638412    8.82593399169969    4.85472154280995
H         2.80775150469333    9.37173536474975    3.37335886340394
C         4.85792645747107    9.70405743789669    1.41762724871863
H         3.82833358840370    9.59402378691495    1.07802734561225
H         5.53206266959844    9.36202345113940    0.63478425650825
H         5.06114020905465   10.75105470705802    1.62718313055148
C         4.30870156670029    7.16647627588857    2.35004308974222
H         3.33837916020446    7.39051195052935    1.90774818593657
H         4.17181541844933    6.47345008146477    3.17684662273280
H         4.94403369114430    6.69682077041065    1.60038250709325
C         8.59458549146236    8.22869669560853    1.10497284741222
H         7.96692719949483    9.03834426004727    0.74044458142091
H         8.03245796029074    7.29858858978178    1.03840000940904
H         9.49666357957248    8.16081366728576    0.49706961267842
C        10.13263809183627    9.98607994507302    2.64041540989461
H        10.89400050199527    9.75182481535517    1.89651239231609
H        10.60830884379856   10.22767416540672    3.58868765578405
H         9.56009723390088   10.85169100688620    2.31952181069657
C        10.30783658340646    7.25850548736744    3.06656738637851
H        11.01139889448395    7.30645371792390    2.23589757451112
H         9.85461617245883    6.27007776617368    3.09237569606118
H        10.84976214073420    7.41723677612992    3.99739149617969
C         8.31793041732359    6.33925907047479    6.13209730418712
H         8.11008674282419    5.37466466874088    6.59540120348577
H         8.35596459207548    7.11258023914152    6.89737589187248
H         9.28075089493818    6.30049444867831    5.62763823183303
C         7.02838415627278    5.24317258642812    3.90789101891106
H         7.89612897010120    5.25664298065518    3.25172137532373
H         6.13571558920212    5.19903484919096    3.28914038059805
H         7.07093363061596    4.36152783311177    4.54728434513066
C         5.54844634099624    6.38702008029099    5.98575424833549
H         5.60731394385101    5.36355434912546    6.35625445964702
H         4.63008335278780    6.51486569619911    5.41647366362460
H         5.53020900128280    7.07835802153744    6.82628059622476

