53
CSD_code = VUGCOR | q = 0 | S = 0 | Stoichiometry = C18H31ClNPPd | MND = 4
C         9.45323315688227    2.49956020544093    8.13666222530231
C        10.39514842885677    2.63660022551386    7.11982359330024
C        10.69496282931737    3.89513302319646    6.61524796128815
H        11.43281223362927    4.00165575890259    5.83120434684598
C        10.04695114095640    5.01445164016520    7.10985774727561
H        10.28044955252692    5.99110051898956    6.71191063889447
C         9.09924432242972    4.88652806502983    8.11112816755493
H         8.59385280375873    5.76241323153936    8.49482422539586
C         8.80535313838151    3.63282750332151    8.62863891247424
C        11.02852861960371    1.38228266395385    6.57780907160107
H        12.11263719518698    1.47393491705919    6.46933088485543
H        10.61697153649442    1.17791159509520    5.58495332221388
C         7.83501412334459    3.43597856038037    9.76828321387583
H         8.36104215398794    3.65168352729167   10.70752594229273
H         6.98093803705510    4.12947834704893    9.69823941195349
C        12.04944850357986   -0.24624828261479    8.83496105811298
C        10.12056774971433   -1.42879987995174    6.58586537349466
C         6.29838696725829    1.83420859351431    8.82923250273913
H         6.01990524708337    0.77484508310461    8.81451295649680
H         6.64956879590412    2.12980734344865    7.83289663200249
H         5.40767252239578    2.42989910641541    9.08131699335770
C         6.86774974627729    1.70806282907364   11.14619217423692
H         6.02300654754402    2.35149257476496   11.43051292681367
H         7.66916068896418    1.82475094843605   11.87830336332866
H         6.54367008493937    0.66663936392064   11.16094912640558
C        12.26890190870760    1.13041243590633    9.47321527244410
H        11.33463629051903    1.46247798918153    9.95083159039277
H        12.56993569317297    1.87983510234490    8.74413436046291
H        13.04242326212770    1.06890073732031   10.23758288712328
C        11.64924668074321   -1.21070817885080    9.95231964325708
H        11.59686700445684   -2.23811908877569    9.60562833223825
H        10.66691648189602   -0.92906878258831   10.34777354288461
H        12.37353251676867   -1.16407611151665   10.76462559119865
C        13.30336218735505   -0.72576913189674    8.11269662676503
H        14.14865130585998   -0.71328652906485    8.79987040861220
H        13.54814305947800   -0.08572494307264    7.26699411638546
H        13.17924480075283   -1.74523592743184    7.75484043017663
C        11.07539878665328   -1.61497014620734    5.40879359814214
H        12.08696168109339   -1.82056538966811    5.74862805322268
H        11.10059097261881   -0.74202902256971    4.76103389984987
H        10.74223386560666   -2.46249526143323    4.81073869493110
C        10.01797565280598   -2.71778650359675    7.39721032236965
H         9.50853692460441   -3.48319488340003    6.81323763816841
H         9.44044081729749   -2.54306053919064    8.30495936066331
H        11.00218443378328   -3.09782130672541    7.66150137634315
C         8.71851670987934   -1.03744311773642    6.09986572545883
H         8.30221028747932   -1.81723959091074    5.46427126163030
H         8.73728734019607   -0.10588857007448    5.53142018133412
H         8.05477755676340   -0.90565493952926    6.96607269868931
N         7.36267658240750    2.04110308499917    9.81558629399560
P        10.55333309814309    0.00231388610261    7.72379526656745
Pd        8.87942297944906    0.78192649913261    8.92503377894962
Cl        7.96811499328074   -1.13672923378965    9.88805627561696

