65
CSD_code = VUGDAE | q = 0 | S = 0 | Stoichiometry = C22H39ClNPPd | MND = 4
Pd       -6.36226695059124   -2.91944193939287   -6.51716130507741
P        -7.45627716893822   -3.10099683188835   -8.42927171524202
C        -3.50680261428962   -2.54139961895426   -5.59781262428935
H        -2.78769762213873   -3.20941418589714   -5.10308776166289
H        -3.13535262073624   -1.52071377882429   -5.44940031980918
C        -4.78389335259226   -3.02419189186380   -7.69235238477571
Cl       -8.10640876985028   -2.90471324010308   -4.94668446568690
C        -4.83212301310859   -3.30853045833903   -9.05581582642727
C        -3.66254469351100   -3.35824888804977   -9.80110310260465
H        -3.70486010941521   -3.57196872595947  -10.86090562083827
C        -3.54852014667813   -2.83033005517326   -7.07847733632077
C        -2.38056629687620   -2.88953154515958   -7.82930296725191
H        -1.42381238329112   -2.73524892849821   -7.34821307988958
C        -2.43994522279750   -3.14173774659974   -9.18794857080327
H        -1.53067700991060   -3.17923972898942   -9.76996512155010
C        -6.17521741265570   -3.61691587125773   -9.66282652768283
H        -6.24909908690050   -4.69894554575334   -9.81199350736705
H        -6.31914041723728   -3.14160424079793  -10.63677087256536
N        -4.83810967885442   -2.67589092463787   -4.96477465877177
C        -8.75280202940240   -1.40571337017366  -10.35216395629252
H        -8.16739933815528   -1.90010421357304  -11.12543019275151
H        -8.92957161857248   -0.37873315775019  -10.67039683912976
H        -9.71795471318202   -1.90040425093618  -10.27325962873336
C        -8.02403252493375   -1.40395623730179   -9.01245939702127
C        -6.73509342820359   -0.57900947014590   -9.10415845518171
H        -6.17576592175613   -0.65849573203332   -8.16400099261266
H        -6.97432906489096    0.46961058734912   -9.27633420363765
H        -6.09215393776790   -0.91673432943265   -9.91424818886643
C        -8.89851917108488   -0.79586274501558   -7.91368153831423
H        -9.90502451107607   -1.20308273911025   -7.92643472953409
H        -8.96971629713238    0.28343234286729   -8.04230902804724
H        -8.46259512420507   -1.00084541818776   -6.93101510396847
C        -8.76801738492643   -4.44436298072141   -8.51881516103980
C        -9.07138757236927   -4.93689806220042   -9.93273849680009
H        -9.42232803657144   -4.12992977593553  -10.57006381902101
H        -9.85494369123159   -5.69248891046837   -9.88474477287137
H        -8.20132731249898   -5.39186820923475  -10.40010735206826
C        -5.16556682445409   -1.48650023281876   -4.17016340068701
H        -4.33228147309481   -1.22859161907007   -3.49696238046588
H        -6.04128963659810   -1.71833013524208   -3.55691731064573
C        -4.91486187783854   -3.89094533159794   -4.14676200514834
H        -5.86396897726327   -3.86786563794093   -3.60098512444850
H        -4.09376304845417   -3.91190338844614   -3.41052837560154
C        -4.89012767152869   -5.16549744322798   -4.99469315785952
H        -3.94521919949925   -5.24421286609838   -5.53998403688505
H        -5.71392974165840   -5.10864377337346   -5.73472910496135
C       -10.04646149281156   -3.96915820480203   -7.83269670840449
H        -9.80654215573566   -3.50413844660499   -6.87681867169971
H       -10.70031210467800   -4.81914492246095   -7.64116914219184
H       -10.59097644517087   -3.26042259225282   -8.45238248849493
C        -8.14685842474279   -5.56526001556659   -7.67533184086995
H        -7.17013707783635   -5.86373952446285   -8.06414978638846
H        -8.79410702147005   -6.44095166768382   -7.66562328143084
H        -8.02630951236907   -5.21529978437657   -6.64424310521200
C        -5.52491053577814   -0.29333106803554   -5.05920475935583
H        -4.68134819198472   -0.01908164878248   -5.70062342189351
H        -6.37270967287404   -0.59488174522599   -5.70306998654845
C        -5.94125427692572    0.91088550910711   -4.22451384065694
H        -6.19765700492523    1.74857642733723   -4.86843210677823
H        -5.13305240300527    1.22000510203688   -3.56373109133984
H        -6.80897036281510    0.66643957384290   -3.61652018591027
C        -5.08471964367059   -6.40222065386200   -4.12623411237627
H        -5.07269007005815   -7.30112790800104   -4.73774802965982
H        -6.03822421917271   -6.35309330059438   -3.60532523849691
H        -4.29157468524966   -6.48105388365659   -3.38462768108477

