51
CSD_code = VUGDUX | q = 0 | S = 0 | Stoichiometry = C23H21ClN2O2PtSi | MND = 6
C         4.11873553341466    1.70641747422605    9.58132434703279
C         4.76276052403369    2.57106825790033    8.52651770694404
H         4.03054124190241    2.82252907983669    7.75971137980250
H         5.58568749973991    2.03510144337219    8.05543312967080
H         5.14310281285681    3.48158919918835    8.98886489792354
C         1.63226946959680    0.09481533451642   10.12494361437680
C         1.21589362954442    1.38522558288069   10.75691472499272
H         1.05605162383461    2.13791704612755    9.98539413178800
H         2.00902136651950    1.74225013944916   11.41180624391833
H         0.29826174180650    1.23383495561306   11.32415280215170
C         5.16767443380577   -1.54285276075946   11.65588588772735
H         5.87977934207175   -2.34926255611433   11.79540496148410
H         4.34465577557302   -1.69653025391814   12.34484762166852
H         5.65533632358433   -0.61251735681293   11.92405915006360
C         3.56012580917186   -3.08286954753638    9.44940341775854
C         2.55007563952783   -3.01931184183178    8.45915727464985
C         1.35573926790991   -1.76903257567867    6.93690895987727
H         1.17780611268695   -0.79561961104067    6.49566559826309
C         0.59763048424846   -2.87592056509523    6.52534194853827
H        -0.15609751099485   -2.75140275649471    5.76385456101624
C         0.82830241814852   -4.08574513055270    7.11818528340496
H         0.25976645234507   -4.96433692643900    6.84616821465106
C         1.82383505020460   -4.19006467431342    8.11093877938999
C         2.11255399197016   -5.40047219729186    8.77253525299239
H         1.55196517962749   -6.28485681997727    8.50540890046686
C         3.07972054557604   -5.44236754801753    9.73688494068912
H         3.29782691318377   -6.36762657947758   10.25013042371472
C         3.79826250953721   -4.28458972310911   10.06775971057063
H         4.55704933535598   -4.34448860924092   10.83325879649173
C         6.00134461291715   -1.57970394737198    8.61980025022199
C         5.85121215960740   -0.98310352213105    7.34320459250154
C         4.56492091023510    0.26516201409246    5.89066367898582
H         3.65483778628293    0.83558311300425    5.74520805352527
C         5.49491955199059    0.12780176229881    4.84853395919928
H         5.29255864879057    0.57845042992839    3.88985165355036
C         6.65013432344491   -0.56444093553853    5.08741250686225
H         7.40701700368489   -0.67756980501422    4.32370850539519
C         6.86223717579060   -1.14274932372059    6.35594226549779
C         8.02908395306982   -1.86383285253533    6.67954539131891
H         8.79629683963469   -1.97660519931756    5.92715444250791
C         8.17559649802415   -2.40576973563481    7.92555985109219
H         9.07152560839419   -2.95365009646577    8.17836526207159
C         7.15834729173854   -2.26987163170375    8.88173982482170
H         7.29348355237976   -2.72631340719838    9.85021344203031
N         2.28326992357222   -1.83566246671608    7.85618261057593
N         4.73938237089771   -0.25610555910368    7.07797075807214
O         4.16170865020046    1.96973605056621   10.75034172659789
O         1.05254388032117   -0.94425352779028   10.24923568055448
Cl        1.76092208760570    1.52000551409053    7.34184716079519
Si        4.52609710137084   -1.47580491622338    9.85641374199001
Pt        3.16962655326274    0.09711756307525    8.80614197981281

