50
CSD_code = VUGHIQ | q = 0 | S = 0 | Stoichiometry = C22H16Cl2N3O6V | MND = 6
H        -1.83880063383211    5.51609083839960    9.05687000412105
V        -0.89811261000438    2.31278068547848    7.77957093367955
Cl        2.29723377932629    1.79956834337965   10.72728573587481
Cl        4.54072879550172   -2.26418292439105    7.99080385946670
N        -0.26081942197133    1.42862116164891    6.09853013340793
N        -1.02640171213073    1.62305200096120    5.03585742858002
N        -1.25626900277647    4.85623359761061    8.54873355481439
O         0.70640625158312    2.08642781799827    8.33322828111512
O        -2.09942314484448    2.97338369886785    6.47418962919414
O        -5.82796123053788    3.52833631004095    1.35269551503566
O        -1.45663173960841    3.56426695506213    8.82673091861492
O         0.12440738835558    4.27460092652299    6.90011034423143
O        -1.63571493767820    1.05003331401852    8.19313833404473
C         1.59214088245086    0.28313906127098    7.10818132656968
C         1.53450637572567    1.09818872967543    8.26946931067796
C         2.42436040452841    0.81520091842127    9.32479127301918
C         3.33958584730627   -0.21257548067643    9.24878518390448
H         4.00496387239459   -0.41181347838983   10.07315807013771
C         3.38838573389518   -0.98560134639226    8.09003796146825
C         2.53659478996266   -0.74851405688990    7.03244018811358
H         2.58478569949702   -1.36352194497905    6.14740001016149
C         0.69994274903723    0.56669690764610    6.02678645684708
H         0.82736148916229    0.02538003931912    5.08884423419164
C        -2.01838374093141    2.44159056257958    5.31929583737527
C        -3.01837477244973    2.73484294476437    4.29049794646240
C        -4.11125317554066    3.54095075457051    4.59941518683655
H        -4.20262824467703    3.93270851455669    5.60232295274475
C        -5.07150826890610    3.82981091675877    3.64997026641082
H        -5.90882668350073    4.45325198933796    3.92128474939600
C        -4.95076569061929    3.31223329364424    2.36150122395561
C        -3.85148515310785    2.50242565522709    2.04922649715322
H        -3.77901249194057    2.11138320756829    1.04675123512729
C        -2.90087634296974    2.21481725217268    2.99846216065519
H        -2.05485954458111    1.58866756387361    2.76729692552878
C        -6.97008438377594    4.31543226206253    1.59851268837578
H        -7.60013330210227    3.87551015953133    2.37758142626969
H        -7.52054788101460    4.33554903334152    0.65941780791527
H        -6.69999035658560    5.33777258423354    1.88097195774963
C        -0.23077105530526    6.60967033420727    7.23792257014121
C        -0.34662925865325    7.60387084348898    8.20736685371998
H        -0.56940985018981    7.34902869623935    9.23308053336361
C        -0.13357068233974    8.92719067164451    7.86582114130796
H        -0.21656857546562    9.69469956742864    8.62063653632292
C         0.19087057588489    9.26993816455357    6.56270155265888
H         0.35345170033643   10.30518755990445    6.30316512521177
C         0.31644998579664    8.28406374681812    5.59743688040605
H         0.57766485928551    8.54820250419219    4.58392141818634
C         0.11280943522895    6.95891605887112    5.93335827779942
H         0.21173926009456    6.17531887489037    5.19725590452371
C        -0.42867598731692    5.17147420893524    7.53478565712827

