85
CSD_code = VUGHOV | q = 1 | S = 0 | Stoichiometry = C39H38N4O2PRu(1+) | MND = 6
Ru        2.50008727035712    3.68033198240298    3.53942839672236
P         1.39138068863278    3.91801998069072    5.56926111313935
N         0.78242611988479    3.01643995721074    2.72473651427439
N         1.84263597033016    5.31712824271761    2.91450927115835
N         4.04288554427278    4.85238092393195    4.10726792480661
N         3.56433890223478    3.13963855101187    1.72584208901859
H         2.93736016767435    2.57337729429368    1.14301379309891
H         3.89894605801634    3.90326916957298    1.13433785116356
O         3.34905464578677    1.82648171558447    4.03506496682783
O         4.91223843929877    0.34842331561564    3.52683166771596
C         0.32053093318177    1.77055990786914    2.65777297851976
H         0.96974845476571    1.00467779324147    3.06423804470982
C        -0.90907618579890    1.45485280995512    2.11033916681418
H        -1.24078000906353    0.43014967300122    2.08400407893659
C        -1.69854696056397    2.47951687419194    1.60183137070788
H        -2.66619731317338    2.26956785398262    1.17484632239500
C        -1.21752622235400    3.77493043039747    1.64605206789441
H        -1.80184506702749    4.59010013792589    1.25227951876752
C         0.03176704910223    4.02650054162563    2.21010782227800
C         0.64606313199982    5.34936478052358    2.29385707280505
C         0.14160443056487    6.55193205260629    1.81216084055239
H        -0.81467452660637    6.59064719413278    1.31847289594647
C         0.89243105917231    7.70791147143016    1.97536487433590
H         0.51802556509680    8.64882146283590    1.60674978280221
C         2.12510059282051    7.65397458341423    2.61090870786947
H         2.71096637857278    8.54919246887153    2.73551010689377
C         2.58477319473444    6.42962010241160    3.08418826483382
C         3.83628489209472    6.15826952382057    3.78941050251663
C         4.76902154916528    7.13679267773832    4.12919678889038
H         4.58290639694380    8.16742979923024    3.87514244780618
C         5.92751788868524    6.77704522441368    4.79232407794821
H         6.65627310479799    7.52324103874931    5.06566448107656
C         6.13478717624674    5.43654208254592    5.09211367015555
H         7.02850576864472    5.10914333995292    5.59675596391899
C         5.16893273577173    4.51568279762134    4.73066316322038
H         5.29944303283148    3.46233416231503    4.94393225748453
C         0.20332544731668    5.28263728840451    5.41777918476096
C         0.64669250898790    6.59959322824369    5.52997911416990
H         1.66830059675591    6.79553713340793    5.83049732181046
C        -0.21377210929492    7.64807328856378    5.26168218733155
H         0.13041797380854    8.66608760119466    5.36569879468781
C        -1.51509922343422    7.39389304565707    4.85792531552682
H        -2.18558268797412    8.21398423069960    4.65252135802183
C        -1.95352669586817    6.08743477071234    4.71663260041855
H        -2.96472469573304    5.88775458345724    4.39547397348969
C        -1.09761581863763    5.03452632889406    4.98576403399432
H        -1.43848289616350    4.01380790845172    4.87231717295986
C         2.42603711219817    4.24382663294919    7.02588548138560
C         3.51983983258232    3.38907162181842    7.15630806161963
H         3.68462167151218    2.63388451093243    6.39658810111204
C         4.35237282208663    3.49357162298765    8.25378380508399
H         5.19837373883634    2.83102295562643    8.35598548529534
C         4.09114839730506    4.44462495245259    9.22875079440773
H         4.74035375668558    4.53020984592579   10.08661259151588
C         2.98625238735888    5.27228374310683    9.11535656524707
H         2.77133698393667    5.99455595818417    9.88847668881966
C         2.14443529476942    5.17253807214510    8.02032167854958
H         1.27242925563367    5.80657893840102    7.95071362989908
C         0.43962639441072    2.51131410638228    6.21274328234026
C        -0.61651636761162    2.70993739587283    7.09926892497428
H        -0.92250398153945    3.71236748161451    7.36450181690918
C        -1.26762670100472    1.61823309284516    7.64274469192269
H        -2.08951149113927    1.77111841156801    8.32580830730089
C        -0.86107023484859    0.33198203974593    7.32215901530521
H        -1.37368249850659   -0.51558830038655    7.75069996895109
C         0.21091905348184    0.13494549277049    6.46724366949948
H         0.54289533711544   -0.86604035466310    6.23702483935778
C         0.86717803837808    1.22112859493553    5.91517804382590
H         1.72647608941721    1.08032019912771    5.27366638264274
C         4.30339914143859    1.37452951551647    3.32484480422946
C         4.70800855977364    2.27911422587805    2.09551099512635
H         5.52493170577744    2.92371246825788    2.44238393986862
C         5.17991964618399    1.40535219083522    0.93731556334049
H         5.91788720137586    0.70891264518111    1.33938026328055
H         4.33353348134036    0.80472552153024    0.58843158345200
C         5.78426684140684    2.16663429412217   -0.24949164694693
H         5.04619844189796    2.88155299848067   -0.64048390307755
C         7.04390292921722    2.93320842976130    0.14809952283282
H         7.76192317391155    2.25948369956809    0.60869197027880
H         6.82801070886888    3.73807277942215    0.84899047881199
H         7.50607950129748    3.37486878401901   -0.73133351884765
C         6.11115665607786    1.17402125564916   -1.36323613553909
H         6.51391573740431    1.69092602051325   -2.23067565751289
H         5.22129496760611    0.63026674128237   -1.67222794217091
H         6.84916315543631    0.45421009009913   -1.01917405420134

