130
CSD_code = VUGJOY | q = 1 | S = 0 | Stoichiometry = C68H56O2OsP3(1+) | MND = 7
Os        1.99592624628417    7.80195839442783   13.62014921730474
P         2.14721481600792   10.04391993842594   14.20722418526422
P         0.29575013080663    5.80495351418461   17.47394458993491
P         4.22929059451323    7.23235821016086   13.80671536594145
O         2.15232716426833    8.38111535338704   11.57302635557784
O         0.55994347034375    8.81546319912369   10.07442407921752
C         1.53290415002478    7.01731131814203   15.44608074330660
H         2.08222426456893    7.29634640993878   16.35872385899989
C         0.52169939080210    4.79402031191612   13.65400384084544
C         3.55337432265446   10.99789449797342   13.51649648456803
C         2.04063356845411   10.73261172242837   15.91005538247131
C         2.48153511113217   10.01537423813669   17.01570826670277
H         2.88990735210354    9.02745919999410   16.87639727336983
C         5.82494104300956    6.53764304724442   16.07733909366078
H         5.84359794698583    5.51882802103954   15.72269057503066
C         5.13469776829841    7.51751151271864   15.37359297001066
C         0.70264836281442   10.87658382174560   13.45214585012501
C         4.50274030871137    5.43766888248303   13.58216806093901
C         1.55787442184465   12.02776300139367   16.09808275328642
H         1.23674780080830   12.61091148251672   15.24681784479804
C         1.49927877772992   12.57706915987549   17.36575985868391
H         1.12521553150240   13.58146411775690   17.49581384567874
C         5.35615798700012    7.95526142845357   12.56931979456465
C         2.42237210447163   10.56732343101356   18.28406288673028
H         2.77269332708884    9.99662222375552   19.13144830155171
C        -0.34262476131504    5.42400448571137   14.71617536145758
H        -0.98673651503190    4.69568556896676   15.21705435891442
C         0.94660809338617    8.47460801779303   11.17355303671343
C         0.75052784795313    5.72799511544773   12.62391490112828
C         6.50233767076187    8.67207078695804   12.89366813550694
H         6.77116575986076    8.83678997775455   13.92606205776159
C         1.91100553234993    5.57443863584375   18.25601589550487
C         0.74087585041386   11.44819376265889   12.18559151783892
H         1.66759957668961   11.49186416643119   11.63462549210043
C         3.92150337257261   10.77660361556671   12.19087617511698
H         3.41808107410195   10.01631635196367   11.61326004388197
C        -0.50721764743274   10.83844716279908   14.14763194898421
H        -0.53811363506529   10.40192603504287   15.13767781330764
C         3.88122823575407    4.60119121177718   14.50687192158395
H         3.22524758597930    5.04813148115121   15.24228213899764
C         4.24835682157065   11.94664805191093   14.26394225926792
H         3.99229497838540   12.12599571268921   15.29791389529962
C        -1.61121340126200   11.92173712071018   12.31666682283967
H        -2.50988076449743   12.32031658212908   11.87133197015787
C        -0.36167585191563    8.49760718741662   17.77316163906310
H         0.20372888270431    8.64624478984566   16.86370475730569
C         1.51968146526078    5.36837475332551   11.51973265649313
H         1.65762914273258    6.04419800191892   10.68767185079810
C        -1.19297680417695    7.01712965841798   19.48663434806614
H        -1.28206401630497    6.02244776154614   19.90141522319505
C         0.55055012830347    6.11962141957930   15.72316174069871
C         2.38080783916584    6.44628816557090   19.23132576659574
H         1.75841600184448    7.26201493427549   19.57139469188492
C        -0.10355376782881    6.91129680069084   12.87278334600017
C         2.71288020328301    4.52772758492972   17.80591261759287
H         2.33982736996401    3.86591469962114   17.03585546018673
C         5.15764169449632    8.82831989303260   15.84429214637561
H         4.63830582899211    9.58808011150671   15.27580193700200
C         4.43755623137912    5.21122462320576   19.32144655891227
H         5.41867096565208    5.06609583148846   19.74556012367488
C        -1.15107582123190    6.43855898305569   13.86784306738664
H        -1.89684656441171    5.86167036864643   13.30387466074527
C         3.97289785435945    4.34631708198630   18.34256847660862
H         4.59362910757058    3.53349094986164   17.99783004776004
C        -0.94708596203214    9.57097369579333   18.41996545519547
H        -0.84575833486758   10.56375237726441   18.00836113533090
C        -0.41383872635915   11.96627271246081   11.62338161882879
H        -0.37580880507603   12.39751531492715   10.63527028835261
C         1.03142290444135    3.51995000492681   13.58333543799903
H         0.82598070469699    2.79849911623085   14.36132368810086
C        -1.65453962925568   11.36366581428804   13.58588552561907
H        -2.58505915668939   11.33182511084614   14.13404818797372
C        -0.48764732238437    7.21844235070686   18.30214002607447
C        -1.77548026845173    8.09558731127082   20.12656812559896
H        -2.32402150551249    7.94160276789026   21.04310376115248
C        -0.07773614714014    8.11628468011902   12.25903441894520
H        -0.89079141115003    8.81904732948666   12.39468656763107
C         5.34339611795980    4.88584672658590   12.62307560293998
H         5.83892794272377    5.51893564724145   11.90262995501821
C         2.04390688114168    4.08349739375760   11.46597318092509
H         2.63049068252896    3.78751227731819   10.60967888994179
C        -1.65617973501373    9.37013044941285   19.59328189971524
H        -2.11650065336146   10.20723495649962   20.09482117122486
C         6.50931346794428    6.86708421105650   17.23536897162015
H         7.05296096002812    6.10051814045222   17.76661891450759
C         3.64566362880595    6.25932670495433   19.76052008865692
H         4.01342689115193    6.93260957912189   20.51947152576539
C         5.56047112937247    3.51825798275142   12.59818736043539
H         6.21440896550331    3.09632787846903   11.85003403171039
C         4.96056803584718    2.69542612093505   13.53567803593965
H         5.14878588961269    1.63256893668483   13.52178492954996
C         1.92562375261599   11.84662176159123   18.46415792660925
H         1.87810638898620   12.27789560454974   19.45243774258249
C         5.61824329301808   12.46435506695742   12.35978591088110
H         6.41365323345073   13.03957923991339   11.91111140089463
C         5.03183278865569    7.75155096387990   11.22785234286331
H         4.13347447214444    7.20768862476350   10.97542922409401
C         5.27632046819738   12.66950740509660   13.68596861401273
H         5.80775017256257   13.40192959965729   14.27511183829400
C         4.11817135707415    3.24024746837557   14.49189832323946
H         3.64953471536821    2.59805800288324   15.22354069957574
C         1.79340014541574    3.16784452611673   12.47302358005148
H         2.18223766033091    2.16479110537939   12.38964233579898
C         4.93799827812221   11.51660618712421   11.61463617650298
H         5.19887122657554   11.34864544264905   10.58095093213694
C         7.30991545426366    9.17435861367879   11.88800339610795
H         8.19983271192786    9.72808690420933   12.14699494522696
C         6.98379683883246    8.96907131394098   10.55817901163835
H         7.61842311572697    9.36335751501737    9.77887445997231
C        -0.76800731936414    4.38622000870023   17.83430606483808
C         5.84101072235027    9.15527055196358   17.00014219680905
H         5.85032897343705   10.17700749228880   17.34912322533666
C        -1.86605850630883    7.52747472369145   14.64783227009803
H        -2.49598524406619    8.11643970438295   13.98555674474222
H        -1.15069099353207    8.19144269836318   15.12516260574297
H        -2.50303585029565    7.08792683409034   15.41350815441825
C        -2.12285720109972    4.51125873372249   17.52425158503318
H        -2.49354468093629    5.44428204272142   17.12033402053794
C         6.51643295286217    8.16999968563267   17.70278005689233
H         7.05615812261955    8.41960283570121   18.60357336823867
C        -0.28741795027872    3.20427484029849   18.38667693997212
H         0.75540426059896    3.11156129876626   18.65287205948212
C        -2.98398198688252    3.45560026234552   17.75288535725593
H        -4.03162347526191    3.55391065719224   17.51309995269298
C        -1.15852800464404    2.15256212828729   18.61501833937761
H        -0.78708963749171    1.23662453007008   19.04846072933696
C        -2.50081522613959    2.27356155587719   18.29438734447467
H        -3.17380329025118    1.44955818756387   18.47327148629453
C         5.84146568075785    8.25627052239837   10.22881463316025
H         5.58130450895016    8.09643588724544    9.19313686870370

