80
CSD_code = VUGJEN | q = 0 | S = 0 | Stoichiometry = C41H34N2P2Ru | MND = 8
Ru        4.64224060999500    2.61114601309859    2.56104790094989
P         6.58535157836429    3.72096144171468    2.34487958452678
P         5.25862013624836    1.09682613613887    4.11830225039472
N         3.80943401512582    4.59763371216889    4.80340606390552
N         4.98899077722128    5.68746248289525    1.62361407604061
C         4.29321136317425    1.73100299340742    0.49977039395087
H         4.96734920903940    1.26442457217222   -0.20773262350731
C         3.46075643387423    1.06990621281721    1.42554571052193
H         3.41204511673015   -0.00095245090066    1.59179345544364
C         2.57042563557876    2.02638482786801    1.99492701107146
H         1.71232123725990    1.79075264502687    2.61268183946845
C         2.83728715881453    3.27798091255519    1.38127043198092
H         2.26171389044954    4.18376568812375    1.51127119662783
C         3.90988130522809    3.10216990207892    0.48082450135602
H         4.27004773289315    3.84096392180138   -0.22326145050558
C         6.27229761931406    5.45834614496469    1.85693141862610
C         7.24350803395784    6.45234539562599    1.78390880481112
H         8.27990896732806    6.21448727111662    1.97574606014310
C         6.83937124580548    7.73656971235268    1.46394582865511
H         7.56136162056111    8.53855614184090    1.40018737543540
C         5.49319298428033    7.97843691464417    1.23269804337708
H         5.13936676531790    8.96897605013872    0.99174387276393
C         4.60821473523278    6.91362336053466    1.31959760610410
H         3.54907422297289    7.04916580400062    1.14045041096000
C         7.60594411444924    3.11016433715683    0.96381369437292
C         8.28748026662950    1.90855849084860    1.14942625372761
H         8.26302205176926    1.43929265356876    2.12505594737162
C         8.97530015948393    1.32454220473845    0.10396858220214
H         9.50504067287143    0.39544935242164    0.25918011001580
C         8.97721622767967    1.92807203079231   -1.14472003920587
H         9.50937344535366    1.47053485645986   -1.96590451199656
C         8.28887425209041    3.11374622909747   -1.34075809488093
H         8.28362746132271    3.57975387950914   -2.31584582035057
C         7.60165673585565    3.70322161460222   -0.29360567502408
H         7.05999136177351    4.62643717750471   -0.45116605763561
C         7.82126887537218    4.08829820745221    3.64313971161310
C         7.31674900549490    4.64749762637370    4.81581923934463
H         6.24628317902893    4.75589519215265    4.92820588054124
C         8.17541517765817    5.05287463423438    5.81900959845823
H         7.77599133437147    5.48900901557611    6.72223707037115
C         9.54417530028461    4.90036611230530    5.66469377270775
H        10.21710166498901    5.21676151557812    6.44834955112260
C        10.04946772683284    4.34439080684610    4.50212958968808
H        11.11687347017032    4.22785240241629    4.37709502527360
C         9.19532930733847    3.94430443709033    3.48862668399149
H         9.60337685947680    3.52607723135746    2.57924219898044
C         6.22538294464461   -0.38201214241684    3.63299554022411
C         6.69917038493309   -1.27520333502994    4.59345598824083
H         6.50427386289593   -1.08512232306015    5.64042541230563
C         7.41511486892878   -2.39228887922949    4.20834312683030
H         7.77897887275256   -3.08127009836711    4.95695720118162
C         7.66734088293756   -2.63190270792181    2.86537040515211
H         8.22874041343153   -3.50617477555113    2.56959103685105
C         7.20073079054966   -1.74897194403988    1.90749666717492
H         7.39662529442510   -1.92979043143834    0.86016050489045
C         6.48234364376050   -0.62968613202075    2.29232461396833
H         6.12590644790147    0.07187480660840    1.55051811911495
C         6.23154742415934    1.59588720030495    5.58406347684298
C         5.64027647490107    2.08602065608299    6.74218608545611
H         4.56572220084050    2.15053156876363    6.81498795595837
C         6.42864655411108    2.48636378646344    7.80673457930790
H         5.96096320566004    2.86328458624547    8.70453086773811
C         7.80793633447096    2.40043552519855    7.72842706415974
H         8.41913303322575    2.70392553947314    8.56573189152893
C         8.40415266609432    1.92677829911520    6.57116337211698
H         9.48031414255391    1.86384421759954    6.50096300939743
C         7.62179466291845    1.53919633066484    5.50158602309545
H         8.08900486197267    1.17639125118856    4.59549255633536
C         3.77100909843973    0.31759784287205    4.85384696557435
C         2.77716087378501    1.17493761670975    5.32713519406828
H         2.92172264309410    2.24610892002194    5.25795796012177
C         1.60482142619893    0.66694994666820    5.85426652187578
H         0.84730039492789    1.34217138664438    6.22505047495857
C         1.39559688488272   -0.70247705848667    5.89342460612140
H         0.47661281622409   -1.10071096505658    6.29818304960633
C         2.36280277681205   -1.55755601521060    5.39522101800157
H         2.19790568955953   -2.62565169984102    5.40482610894844
C         3.54422372830672   -1.05448869261103    4.87685966833510
H         4.28199008126613   -1.73896070613708    4.48368624410785
C         4.21832257338293    3.86043261172951    4.01939421648498

