93
CSD_code = VUGNIW | q = 0 | S = 0 | Stoichiometry = C34H56NiP2 | MND = 4
Ni        1.84416828928421    9.88231759399859   11.73616518052607
P         0.52074002476269    9.05901209417391   10.20141652843095
P         2.15823344782704    7.92611543080683   12.65496481536215
C         2.88242701565130   11.36786265766607   12.56462244376953
H         2.67915444064993   11.45123816071535   13.62885102613262
H         3.94172484736506   11.34689056461259   12.31820392946992
C         1.98632729811331   11.87263664335705   11.62612621249893
H         2.38012915177600   12.17441722529218   10.65285561262624
C         0.64484350340418   12.39119750249201   11.91403537393497
C        -0.11610715994224   12.93221693770977   10.87069861680068
H         0.30524869262629   12.96598529670975    9.87448970068036
C        -1.39158358418241   13.41139255567944   11.08605884192170
H        -1.95738921061670   13.82416298777233   10.26182010910926
C        -1.94926142436386   13.36946999110937   12.35416826540676
H        -2.95085648807974   13.73726591338693   12.52284002924227
C        -1.20408129866289   12.85975294176404   13.40445436194409
H        -1.62426988771205   12.83520416179931   14.40070394062307
C         0.07563889941754   12.38643788363491   13.19216355250557
H         0.64167042980317   12.01216425313664   14.03218150031335
C         0.29231555654817    7.24424545803055   10.58540802313489
H        -0.69546212260763    7.15576066469289   11.04277606111691
H         0.27493607009447    6.67502908573212    9.65175716673662
C         1.34631275610531    6.66596162818410   11.53744452764169
H         2.15499417611851    6.22154825453002   10.95277115028007
H         0.90756036409129    5.87289905984642   12.14925191149684
C        -1.17722268116953    9.53693937176918    9.60915109584255
H        -1.03412668364949   10.53115681747233    9.16619557669641
C        -2.11352104523239    9.71891618356908   10.80364312725043
H        -2.30578770027448    8.75512544703103   11.28161929688984
H        -1.64250762098990   10.37519153854918   11.53906436687305
C        -3.44051267243766   10.31483219392283   10.34562678728356
H        -4.10995154938884   10.43002828905106   11.20066873670606
H        -3.26235622147916   11.30719011642288    9.92650634186369
C        -4.08807612744165    9.42154994622483    9.29115184592195
H        -4.32283829518653    8.45053623455609    9.73455263070326
H        -5.02485167184245    9.86623069617123    8.94849046127471
C        -3.14647354234885    9.22018801925783    8.10715548128723
H        -2.96115061144337   10.18369836640600    7.62622765017582
H        -3.61196366101460    8.56248518521409    7.36915794703277
C        -1.81824053593761    8.62229828823139    8.56927535167966
H        -2.00367113720756    7.63776338802955    9.00307146620544
H        -1.15649838311830    8.49353144232675    7.71054310544593
C         1.53002849677418    8.97942657158040    8.63375009659694
H         1.20487892676585    8.15292207770302    7.99002609697141
C         2.96870347849328    8.74227315363505    9.10151525710796
H         3.20679665054937    9.50211566097545    9.87039240106464
H         3.03997821181159    7.76228346448125    9.57620712119510
C         3.97648770315410    8.82902965754877    7.96266703185634
H         4.98694039256339    8.69194077601041    8.35439525536624
H         3.78418811687294    8.02523728762464    7.24625638751513
C         3.86568981214838   10.17231267610645    7.25150150423356
H         4.10502373579552   10.97440831900679    7.95315345856989
H         4.58007560141109   10.22224073777458    6.42688158872441
C         2.44643307761525   10.36219228296491    6.72887206952256
H         2.21994976548881    9.57631391263586    6.00320616584561
H         2.36080694207039   11.32317084496341    6.21632240147213
C         1.43888373693368   10.30160420327759    7.87376672316812
H         1.63935566271913   11.11630909692782    8.57456452528846
H         0.43286214753748   10.43897134633047    7.47241030905709
C         1.06908302002202    7.84103021737422   14.16588237996408
H         0.76936246601767    6.80854631251861   14.38243343903123
C         1.79022832113724    8.44164176787978   15.37153571209566
H         2.61930339998604    7.79932781463764   15.67519189551701
H         2.20239065208116    9.41144263444763   15.07852192173653
C         0.84565303072786    8.62689727872263   16.55606592738833
H         0.47092078524167    7.65112036498483   16.87701658295300
H         1.39193721155823    9.06575069919386   17.39424974143350
C        -0.33083595132367    9.51714256486854   16.17375179003262
H         0.03799925473947   10.50300204676378   15.88454034994180
H        -0.99808290907739    9.64641262033160   17.02879101103010
C        -1.08792730320993    8.89813279245925   15.00526446705993
H        -1.91519729860896    9.54593720976315   14.70681565459403
H        -1.50913222340229    7.93811898844048   15.31764128957621
C        -0.16041818697423    8.68229555874420   13.81667945671533
H        -0.71393008529379    8.19945480159405   13.01028010642029
H         0.19186878151371    9.65722037847471   13.43814734972997
C         3.69509287441427    7.01280728943183   13.17802046682437
H         4.08423589170481    7.60434202964788   14.01725459769228
C         3.51012517402887    5.57094090309087   13.64141381238442
H         2.77145525802608    5.51843848216298   14.44340691358169
H         3.15488026231349    4.95544167533880   12.81299762569430
C         4.84420162253588    5.01378304993317   14.13658808322538
H         5.18024882767327    5.59263094130427   15.00033608588341
H         4.71584330925820    3.97778013051755   14.45875316741788
C         5.90049146724120    5.08822197836623   13.03758130365962
H         5.59308669233422    4.45935748227901   12.19834286151195
H         6.85199000303464    4.70378054815488   13.41100360701118
C         6.07278228494479    6.52585088957635   12.55460308128629
H         6.81075909131374    6.56215596628025   11.75025276278868
H         6.44318787794035    7.14263640752241   13.37662505031176
C         4.73957318145859    7.08191578824572   12.06416935227683
H         4.40887353496181    6.49728462295046   11.20227982951456
H         4.85430357565294    8.12035922341525   11.74174377935139

