70
CSD_code = VUGNAO | q = 0 | S = 0 | Stoichiometry = C26H40P2PdS | MND = 4
Pd        0.33030891724579   14.02370141200746   15.34728198333541
S         0.61020522284570   12.58094664938666   13.53152314273801
P         0.33902469432130   15.45851620586005   17.10941706692829
P        -0.15097723619111   12.34032429847544   16.89295994135005
C         0.62314283812729   15.40622415046982   13.91739295133099
C         1.88961852561938   15.36191144648609   13.31972222202001
C         2.81663254908470   14.25976092142202   13.64152732644293
C         2.32242946875656   12.93820779218040   13.72734186031028
C        -0.28742981899957   16.36691773396133   13.50454860630896
H        -1.29077544021543   16.39065035721120   13.91988917596976
C         0.06491023040136   17.30682051027542   12.54570533601630
H        -0.65277863530850   18.05536744159582   12.23876745528520
C         1.32994908402782   17.28697435614104   11.98630594593759
H         1.60678221667149   18.02074847835658   11.24259621253709
C         2.23365044316722   16.30885142187063   12.35907127466970
H         3.20443548455257   16.25702131315207   11.88551513279546
C         4.18080918242042   14.47597965002386   13.79375360589461
H         4.55693442524783   15.48906411842152   13.74741322245227
C         5.05516862573441   13.42539542067336   14.01462911620535
H         6.11037299229113   13.61824050212563   14.14399901186679
C         4.57281793712312   12.12769783198863   14.05066680813577
H         5.25049145487926   11.29869207269928   14.19831273594727
C         3.22024418328057   11.88660650377200   13.89830321125870
H         2.83913790304721   10.87495239552337   13.90495109818098
C        -0.30367300316796   14.58472901622437   18.62355888689279
H         0.15758703665441   15.02230419820944   19.51500971577496
H        -1.37398384841921   14.80831924539962   18.65674833934214
C        -0.10475979851999   13.06812925701720   18.60770531508885
H        -0.84390534714714   12.57620122205280   19.24522335801411
H         0.88149860088191   12.82176292359300   19.00854936180983
C         2.11236100280235   15.84197812509814   17.51592665293983
H         2.19702214091073   16.17592287181912   18.55837671744011
C         2.91117681529438   14.55430011633159   17.31656287538122
H         3.98098098154247   14.75439277140802   17.35017333157070
H         2.67725745282136   14.12007490559789   16.33045857140997
H         2.67848683335757   13.82387702508198   18.08845104291485
C         2.63048489666647   16.92096293129159   16.56797704977215
H         3.70904753437419   17.02467881462210   16.67518452206568
H         2.17692626215189   17.88896782757147   16.76869051521692
H         2.41358624376896   16.63960919928417   15.53620937917785
C        -0.53585392115315   17.09830491886191   17.19720131371623
H        -0.08351699787198   17.67927843345412   16.38276154303471
C        -2.01183460187149   16.89738742242781   16.85763695250019
H        -2.47547586927143   17.84832273640113   16.60229088892908
H        -2.55772490775275   16.47702998897359   17.70083682619985
H        -2.10996964035030   16.22327008969541   16.00529082080977
C        -0.36439351702240   17.84804036850362   18.51378170413381
H        -0.84853502664736   18.82105059489552   18.44446868420601
H         0.68497071043796   18.00951617295611   18.74780175928018
H        -0.82405438422589   17.30376754362858   19.33590390261960
C         0.62366467953829   10.67174326721324   17.19565862473428
H         0.24285854037948   10.25584612618324   18.13734342807464
C         2.13589434496619   10.87176732175813   17.29480171527907
H         2.64365374723773    9.90978854818090   17.34133986960469
H         2.41333907694121   11.43563482901597   18.18371805283684
H         2.49773482398202   11.40747321460972   16.41539152293518
C         0.30099850503379    9.73987551348935   16.02982256760889
H         0.96305811729317    8.87553237183756   16.04584937227642
H         0.44434539700501   10.26480221054591   15.08392242302623
H        -0.72304251926997    9.37669117615872   16.07658412594596
C        -1.94262927272117   11.94736709939377   16.55261500990063
H        -1.89225804474301   11.22987831195546   15.72314137208532
C        -2.63059275241271   13.20625797794336   16.01760473333964
H        -3.62798505380765   12.96635903912913   15.65097977573692
H        -2.04543307754855   13.62576789960964   15.17438106488397
H        -2.72669933577140   13.95676619882984   16.80286438064747
C        -2.71898079456284   11.32768250091159   17.70944818023385
H        -3.68319672840348   10.96837268170593   17.35315553832210
H        -2.90819832730908   12.05969450296269   18.49261148322189
H        -2.18314222215213   10.48444750410488   18.14079228515153

