76
CSD_code = VUGSIA | q = 1 | S = 0 | Stoichiometry = C34H34N5O2Ru(1+) | MND = 6
Ru       -0.21555997635786    8.27978005330552    4.22018944167955
C        -2.82317116668654    6.85238448249081    5.40905156293098
H        -3.08607991517352    6.61093177299429    4.36992112695167
C        -4.03427867705134    7.42566219982414    6.17066064554471
H        -4.35235502079884    6.80807122147288    7.01117381107472
H        -4.89578748764383    7.60614370572816    5.51943045974549
C        -2.36099771992924    8.91537727489579    6.17131571651270
C        -1.76477488569924   10.17562149878777    6.52031865508934
C        -0.40822447614256   10.49502074176024    6.21843823433806
C         0.07925353595663   11.74552538733249    6.67250757401977
H         1.11160046344392   11.97639060881268    6.45337174037373
C        -0.71816495774060   12.62998703066685    7.34735852885555
H        -0.31442904017155   13.57891040367291    7.66784431137693
C        -2.05116361999436   12.31569111949851    7.62206971232578
H        -2.67481322167484   13.01729576390439    8.15230978494173
C        -2.55432170705386   11.10599612085321    7.22096017468990
H        -3.57795309164760   10.84272159007830    7.43680579821442
C        -2.21955496026508    5.58499205655555    6.05227769315329
H        -1.34964078018475    5.31217768044643    5.44664388274964
C        -1.74257137230293    5.83882240042880    7.48031152951538
H        -2.57447023363336    6.04839091095660    8.14796077678750
H        -1.05467636740371    6.68278941297278    7.50767985824999
H        -1.22258911943687    4.96134664745230    7.85649023270784
C        -3.21005140219075    4.42519736783565    5.98862950607645
H        -2.74041260965517    3.51989521669284    6.36397754125979
H        -3.52782802354883    4.24644795629027    4.96372794180260
H        -4.09234061939206    4.62055505588010    6.59203642296937
C         1.47105898896444    6.94656323844351    6.21350130323725
H         1.42349800483336    7.92176315836958    6.68500076257265
C         2.21487752746492    5.91814662658400    6.77294328941525
C         2.23937762770423    4.69818069557207    6.09156052327005
H         2.80619333269011    3.86999456363960    6.48765551343947
C         1.53854474978221    4.56246284405614    4.91143335448444
H         1.55319235088022    3.62684022976274    4.37702028142197
C         0.80926629903023    5.64537107332514    4.41790241422076
C         0.00505912877608    5.63899823274021    3.20172254906661
C        -0.15608386914156    4.53820982442432    2.35999513735404
H         0.34630755975617    3.61096025821621    2.58070190218753
C        -0.96054540595265    4.64086096253335    1.24562568866872
H        -1.09365011152630    3.79818730196679    0.58562459627314
C        -1.60543150379070    5.85153477545410    0.97534889340268
C        -1.39457850512097    6.89763708225809    1.85865910550330
H        -1.87121319303789    7.85659495900861    1.68916755945666
C         2.95543489184486    6.10268759922562    8.05357771043498
H         2.53434726727806    5.45893281785807    8.82492645366938
H         2.90012709180139    7.13304266571434    8.39231387898326
H         4.00077587786986    5.82504366459992    7.93112672595679
C        -2.48205864305183    6.00468100054133   -0.22167849224314
H        -3.28757138159913    5.27259715472465   -0.19497133730109
H        -1.90940042086172    5.82583292825066   -1.13034793280946
H        -2.91313043520603    7.00046208586404   -0.27094033631659
C         2.49828201118372    8.33194072492662    2.96311647439708
H         2.54192823306502    7.26453724198699    3.14724561929902
C         3.61625795450588    9.00523903110752    2.51553847198651
H         4.53885283545161    8.47260685268618    2.35287799883119
C         3.53022940569028   10.37654064389225    2.29650404499047
H         4.39003815990452   10.93731396092512    1.96699423503070
C         2.31687838300644   11.00204297177233    2.49947207499023
H         2.21729723722913   12.05986710799544    2.32151872836003
C         1.22040168473912   10.25855332798187    2.93996475995508
C        -0.13031268352513   10.79464728210115    3.07423620715300
C        -0.47505844097462   12.13279816990507    2.87865892130489
H         0.28934164572545   12.86977266923806    2.69751214994915
C        -1.80135854190247   12.51177420359302    2.94115641307219
H        -2.08374707193212   13.54435692933472    2.81416682281146
C        -2.76514623118839   11.53288043325352    3.15574907003389
H        -3.81359636145193   11.77968504438266    3.18297835882823
C        -2.35301710614655   10.23100286593182    3.35804528087788
H        -3.07841078396933    9.44651254495159    3.53717164269878
N        -1.88182237606535    7.96954400821220    5.41757168633432
N         0.78513599558524    6.82437155630565    5.08064195153084
N        -0.61970582334881    6.81414613948086    2.94267141335573
N         1.32863237635735    8.93089470891019    3.19047464669131
N        -1.07224782859499    9.86228502710734    3.35675116243052
O        -3.58118585432665    8.67086359409882    6.67661947013997
O         0.39939240398578    9.72011153520358    5.58103018668053

