65
CSD_code = VUGXOL | q = 0 | S = 0 | Stoichiometry = C32H28Cl2P2Pd | MND = 4
Pd       -0.37119339163207    4.13648322982682    1.19622408447199
Cl       -1.38677911540625    5.70096245487496   -0.09399512530989
Cl       -2.26901916348285    3.02464541470104    1.80497169984876
P         1.72069670218467    4.77767791443546    0.76522460008035
P         0.46631974440482    2.65019203917184    2.61751386598053
C         2.37857291355315    6.40224273199503    0.31697492816140
C         1.78961280837234    6.98803348808086   -0.80320790284785
H         0.99568654836446    6.45950585691953   -1.31542740069449
C         2.19558360135358    8.24060309964876   -1.21951460447334
H         1.73659920714120    8.69584923307686   -2.08393726510224
C         3.18347416147817    8.91598134377768   -0.51896183590499
H         3.49912179377415    9.89728073601496   -0.84097540635346
C         3.75864771101657    8.34095062769718    0.60202955739254
H         4.52078009539310    8.87392867704498    1.15189805912773
C         3.35726781978097    7.08659227774343    1.02825161971824
H         3.80452625990614    6.65054235142741    1.90993166099600
C         2.23623081954476    3.72419672440236   -0.62901477948586
C         1.27995990255511    2.90351858747590   -1.22584804282606
H         0.23568248397765    2.93239897686136   -0.87542105479263
C         1.64093819064060    2.07320978250305   -2.27271401616194
H         0.90077982291535    1.43864714838854   -2.73692129738092
C         2.95000073445526    2.06182182835965   -2.72771679708680
H         3.23022824122972    1.41458579487458   -3.54538758249070
C         3.89958563493170    2.88654726429237   -2.14434528267171
H         4.91612590006800    2.88194215354551   -2.50904430018718
C         3.54614243797951    3.71939148453296   -1.09854443791266
H         4.27948651957221    4.37467248217107   -0.64805375684587
C         2.75994956521582    4.15378499344475    2.16472594973946
H         3.82522618989095    4.20372068582604    1.91695968297938
H         2.55967099809497    4.81959802759223    3.01166343299724
C         2.35584620461871    2.71725036461541    2.49628909280622
H         2.59728401311257    2.08850245716413    1.62736585347164
C         2.98890330633166    2.12337652376525    3.71605429150979
C         3.20638912714002    0.74811781042213    3.76144243612236
H         2.96303953026124    0.14281850261845    2.89981067856943
C         3.72301485434965    0.14750324957230    4.89407117301772
H         3.87755639937161   -0.92117653008812    4.90934417274676
C         4.04181531426772    0.91267524129510    6.00336093956516
H         4.44515807368266    0.44523759604831    6.88887218960809
C         3.84087457435542    2.28102998355101    5.96673012722363
H         4.08748614730076    2.88784819951618    6.82525043588490
C         3.31409200530390    2.88127769966372    4.83674560389332
H         3.15407561249976    3.94881697172063    4.84125347909089
C         0.06328957501637    0.89131662492617    2.57142786109620
C         0.55677482106454    0.12723590766652    1.51544834090374
H         1.21256992879048    0.57918462955245    0.78061308521156
C         0.19050947959711   -1.19900230193238    1.38922393717898
H         0.57816679628597   -1.78940440336790    0.57178009016458
C        -0.68612904011493   -1.76514716704027    2.30103071284825
H        -0.97505987877550   -2.80057408344140    2.19886781763397
C        -1.21275861787126   -0.99601147876203    3.32535751842573
H        -1.92073182279100   -1.42889768147860    4.01621042576128
C        -0.84927519820431    0.33168975875785    3.45928588403732
H        -1.28942695767934    0.94273455910768    4.23337280891825
C         0.14572873150889    3.27434856479803    4.28681280244777
C         0.42361754472940    2.55039882067174    5.44382083665041
H         0.80248064910736    1.54069969970278    5.37424595224005
C         0.20624966251864    3.12802087496488    6.68174658499626
H         0.41848857336322    2.56461064250521    7.57835519278709
C        -0.27997633319436    4.42228849510061    6.77373694362368
H        -0.44849084191379    4.86619285748580    7.74366332008479
C        -0.55905181677107    5.14586471545160    5.62496218629905
H        -0.94602358036132    6.15120537568885    5.69872705434858
C        -0.34750919879489    4.57614023305685    4.38257617183956
H        -0.58988277535475    5.14011987605337    3.46790574607089

