65
CSD_code = VUHBOQ | q = 0 | S = 0 | Stoichiometry = C26H33Cl2N3Pd | MND = 4
Pd        5.16695319487080    0.48490594100385   11.17003371736883
Cl        5.09798160653428    0.83930588261378   13.37565657808007
Cl        5.67551423790197    2.66287076983144   10.82724385691997
N         5.25914964410620    0.08237017326856    9.21210930839305
N         5.69053037520864   -2.29375809159727   10.73631067792332
N         4.08731331813575   -2.27204183771937   12.16650654536324
C         4.89020736493345   -1.47529079256218   11.44824658814210
C         5.89719568800430   -0.93871518946504    8.75864808492281
C         6.64715846008452   -1.77523105795352    9.78456044307377
H         7.17143227268209   -2.61068442059703    9.31973145035497
H         7.36621021834367   -1.12871354924353   10.32285715727451
C         5.39051892581189   -3.60195807829636   11.00298504321134
H         5.90648883346976   -4.42105328261001   10.54566120856822
C         4.38652875145187   -3.58475798556275   11.91243928924946
H         3.87706020331910   -4.39863513715015   12.38404124208391
C         3.06085461474575   -1.80032649379982   13.07947079873809
H         3.03182705678228   -0.70987321010542   12.95266013877635
C         1.70975771855200   -2.40848951036869   12.71435619745139
H         1.49561495091121   -2.25808606665812   11.65832005817597
H         0.92843550683507   -1.92969203253591   13.29701592610227
H         1.68637167403723   -3.47517506840890   12.92665812709683
C         3.46768490812090   -2.10541983039303   14.51692344985133
H         3.61540688930547   -3.17288051051876   14.66794812664200
H         2.69552667645286   -1.75858698307301   15.19653284099677
H         4.38770373966187   -1.57386740661693   14.74570591344318
C         5.87685729354635   -1.40737291798808    7.36838550682858
C         7.02955325182193   -1.93340300659861    6.78004454072694
H         7.95615135442194   -1.95909988713719    7.33434490210049
C         7.01046878271276   -2.37473898525627    5.47117207901712
H         7.91300584377441   -2.76533989260692    5.02563021912703
C         5.84168569252186   -2.31135726294381    4.72987465356396
H         5.82933744943389   -2.65643103905102    3.70732952607899
C         4.69075419511245   -1.79879278946329    5.30615873761556
H         3.77596811339359   -1.74791110460451    4.73516978765788
C         4.70552051845669   -1.34636353856085    6.61130161643304
H         3.80228904217859   -0.95731719988553    7.05403800991953
C         4.61014381418142    1.02744660902437    8.39788808653582
C         3.22507997857906    1.21819120273011    8.54248437435587
C         2.39708694419033    0.36451405316304    9.48392737356635
H         2.99350821981043   -0.50469510039247    9.80428852125173
C         1.13346373400816   -0.17720065155707    8.80928446135935
H         0.43131479330106    0.62081878337958    8.58653984948071
H         0.63529991129620   -0.88433512399095    9.46962513782909
H         1.37614245393604   -0.68904971040928    7.87969945405123
C         2.03318062186535    1.18930852048993   10.72770064487738
H         2.94669992558077    1.51722608213368   11.25496708707315
H         1.42104763007822    0.59983448818075   11.40829662994000
H         1.47547793213190    2.07687252590497   10.43846953416724
C         2.60841540825597    2.21995228212252    7.81035744364984
H         1.54845469019619    2.38606147020222    7.92110505716954
C         3.33268102835636    3.01790975522780    6.94592113514658
H         2.83873079087589    3.79802763936187    6.38661816266655
C         4.69108788209042    2.82125855874609    6.81122510186429
H         5.25285225381384    3.45735716625712    6.14555127581798
C         5.35774454266998    1.83275455033173    7.52192342967858
C         6.85724769857955    1.72080297508980    7.37092842519014
H         7.22817240752238    0.88952266147522    7.97845354065570
C         7.53439543668651    2.99418099733440    7.88428716368005
H         7.25127631203512    3.85595225808308    7.28593977743704
H         8.61601995602975    2.88373378219526    7.84253541095843
H         7.23548974055075    3.17769931967772    8.91351262787958
C         7.24354102309264    1.45131488174762    5.91346695649662
H         7.02802712336626    2.31589983038911    5.29143746480410
H         6.69765533428123    0.59902914491555    5.51431690637640
H         8.30904404499639    1.24302244079985    5.84477661877158

