65
CSD_code = VUHCAD | q = 0 | S = 0 | Stoichiometry = C26H32Cl2N4Pd | MND = 4
Pd       -0.00021844438210    0.00064043182278   -0.00061028337607
Cl        0.08044216759507   -2.18219490671340   -0.75682001987357
N         2.40696886622959    1.13444105684771   -1.43689114833011
N         3.00075510249981   -0.33328063060954    0.01468609856523
C         1.92628596066897    0.26718213140326   -0.52893230037063
C         3.77491854700918    1.08247069397841   -1.45990251108599
H         4.37039149241476    1.68530244983024   -2.11328902009355
C         4.14842968401317    0.16114705644224   -0.54190922626323
H         5.12151567467281   -0.17695236950639   -0.24975158386523
C         1.58113056702570    1.96663490040739   -2.29256122236256
H         0.54308729502425    1.81481603988127   -1.95263448715998
C         1.70915991781160    1.50568126617638   -3.74284183440115
H         2.71337264252630    1.68711674115966   -4.12069357510918
H         1.00063946715669    2.04392747042961   -4.36630034829936
H         1.49564864190902    0.44099438494989   -3.81512956420130
C         1.93460456884005    3.43862532896328   -2.11027265936105
H         1.79832569828877    3.71798463151854   -1.06811019318262
H         1.27527696288365    4.05034981418036   -2.71967611000552
H         2.96284939185332    3.63949062947109   -2.40270592908488
C         2.95302262365094   -1.35409113448629    1.04066493177118
H         3.80976746865951   -2.01906985119100    0.90444824741451
H         2.02613910792916   -1.92581966637711    0.89051974673241
C         2.97014062669688   -0.73850868600630    2.41837713321302
C         1.83165154060317   -0.09989024179967    2.89457342169464
H         0.93350351836295   -0.06136584446625    2.26850728832785
C         1.83525039457703    0.50072963884212    4.13962638780357
H         0.95002359585227    1.00557164897579    4.49625772436090
C         2.97643287882767    0.46062902274042    4.92439256996355
H         2.98081939436308    0.92862963712339    5.89771526335508
C         4.11206600771466   -0.17822947471077    4.45812523091830
H         5.00378778692023   -0.21089622042855    5.06701609069192
C         4.11096033688601   -0.77206843232989    3.20729844075423
H         5.00147467171409   -1.26783512186292    2.84633774453498
Cl       -0.08093037295175    2.18316690222031    0.75616933175551
N        -2.40668849451453   -1.13322390785603    1.43705514510621
N        -3.00107637264618    0.33374648666210   -0.01503552274007
C        -1.92640740097697   -0.26653710657035    0.52833562774114
C        -3.77462878883195   -1.08119915117091    1.46063866767524
H        -4.36982877658724   -1.68362926679833    2.11464282812775
C        -4.14851829738721   -0.16034095926476    0.54232630363505
H        -5.12171748596172    0.17765683762728    0.25043150648493
C        -1.58049959515961   -1.96513530918386    2.29266191410445
H        -0.54256030340599   -1.81326706690224    1.95241773916907
C        -1.70814623859078   -1.50400610587304    3.74291598632481
H        -2.71222085931443   -1.68550696945643    4.12110814265507
H        -0.99936897461352   -2.04211348076493    4.36620624853362
H        -1.49471822558183   -0.43929109559098    3.81501147659305
C        -1.93389987816920   -3.43717916313384    2.11067283006041
H        -1.79802633489514   -3.71660874191621    1.06847496611754
H        -1.27423104230072   -4.04876094139323    2.71984728468797
H        -2.96200181576809   -3.63812658800906    2.40356246341484
C        -2.95363899731899    1.35398676399630   -1.04160479014609
H        -3.81049332305879    2.01888767300452   -0.90572172875192
H        -2.02684651499020    1.92595909580177   -0.89189830230846
C        -2.97067845656926    0.73757110514128   -2.41893949881272
C        -1.83168868698293    0.09993222734659   -2.89524205498652
H        -0.93308368570695    0.06315128832525   -2.26969870103466
C        -1.83532233658956   -0.50179982053945   -4.13976980006741
H        -0.94955562930014   -1.00547710746422   -4.49670103520244
C        -2.97701117205349   -0.46372375291320   -4.92390561763223
H        -2.98133331471896   -0.93233523508532   -5.89693504682631
C        -4.11315755696805    0.17412765067554   -4.45750293389496
H        -5.00530518962843    0.20511432802430   -5.06585857739098
C        -4.11201669120079    0.76905371923814   -3.20719915117019
H        -5.00302334405349    1.26374529715972   -2.84598000489762

