65
CSD_code = VUHHAJ | q = 1 | S = 0 | Stoichiometry = C24H31F3IrN4O2(1+) | MND = 8
Ir       -1.37299908769230    2.79722339916640    3.82019023911910
H        -2.06539112653521    2.80172021576945    5.17318510940329
C        -0.08649829138033    1.32527555443111    4.61141013979190
N         0.27398483487913    0.02680114245582    4.69197095631231
C         1.44517257731995   -0.11206418665979    5.39237429898276
H         1.89269333535168   -1.06872712731720    5.56344462110501
C         1.86475022746024    1.13793857004409    5.77415058839535
C         2.97854081972626    1.78166683961660    6.40803162963388
H         3.76068237152679    1.16547278411327    6.81852634744747
C         3.06055950114235    3.13461938309099    6.44296847385339
H         3.90988094855170    3.63028766759102    6.88213361401845
C         2.03174831552634    3.93958352917703    5.85100953868722
C         1.75617923991775    5.25120719981924    5.55121841023400
H         2.31248734113045    6.13955389532531    5.76779607658873
N         0.56765951168025    5.29142277243729    4.86887204059964
C         0.06379559524901    4.04891075653592    4.70751804366502
N         0.95451021175012    3.27282027677565    5.33312715171292
N         0.87628317134809    1.95415254995485    5.29496497781920
C        -0.39107061253987   -1.09970111298030    4.07601470992967
H        -1.31032765248547   -0.73609369812747    3.61776567005558
H        -0.64774030122114   -1.82390803860397    4.85521103105553
C         0.49075353235779   -1.77153302369773    3.01600815634401
H        -0.07950936503890   -2.59628754994730    2.58693497228414
H         1.37777666366698   -2.19461604238804    3.48890730776546
C         0.91749131670917   -0.81131824264345    1.91352101952907
H         0.05520454481142   -0.39876137912208    1.39476800944372
H         1.52737853330483   -1.33276474273371    1.18171098777786
H         1.50781560761714    0.00970618377338    2.31447036334776
C         0.03541863630086    6.51126922355006    4.30935205519844
H         0.24635953562143    7.33203425518152    4.99909263562430
H        -1.04685188919919    6.40562837576862    4.21565919530059
C         0.66606455878054    6.80767691406176    2.94282188443819
H         1.73832240184242    6.96682871886400    3.06837413638948
H         0.54033151060091    5.94281457004275    2.28791180446494
C         0.03610117777360    8.03849386531366    2.30563909392117
H        -1.03268566145220    7.89875930345921    2.15929787265915
H         0.49126332433043    8.22869008415570    1.33836543443986
H         0.18510630437379    8.91420517785087    2.93210520718095
C        -2.36819642683821    4.40331917780508    2.39277351190592
H        -1.63014790591808    5.19722126801100    2.36602034832760
C        -3.20161537094242    4.32518800144361    3.47529595452407
H        -3.08442184656588    5.05977112584875    4.26640109906090
C        -4.54494302542502    3.63307955191048    3.45368348662645
H        -4.97674351696782    3.76414154980410    2.46087354021412
H        -5.20361120864563    4.13964903594760    4.15953495926499
C        -4.50898660582183    2.13941470203142    3.82761381451946
H        -4.64084120521534    2.04422676155754    4.90556960417747
H        -5.35085109803066    1.62429635282220    3.35454653054078
C        -3.24201027825241    1.41200808029167    3.45005862009421
H        -3.05569834770344    0.53882019127688    4.07013995759776
C        -2.61500924684304    1.50849740117205    2.23722879001512
H        -1.88392287468401    0.75528512006587    1.96550072455657
C        -3.13386805233802    2.32990907703492    1.08858681559214
H        -4.22416082974487    2.33331631434237    1.12977472856912
H        -2.84295886458381    1.84179236399715    0.15742887988412
C        -2.58907054070776    3.76788549612101    1.05208420023389
H        -1.63458745252787    3.76343653425044    0.52562198935684
H        -3.26978816206980    4.40716847870046    0.47985072981129
O        -0.07788497113105    2.81531633136147    2.01830598033586
O         1.95224794740551    2.57047782884915    2.91188083115271
C         1.16791770418038    2.73643918582068    1.99504763551388
C         1.72237789808681    2.90450302953611    0.53794758118895
F         1.16413894387146    2.01378406452671   -0.29859610069473
F         1.40597494176313    4.12835448918667    0.06782887245880
F         3.04331873253857    2.77041042218196    0.45297311065364

