65
CSD_code = VUHVUQ | q = 0 | S = 0 | Stoichiometry = C29H32MoO2Si | MND = 10
Mo        4.93861560090447   14.78099328837445   14.41935459397146
Si        5.55667860732372   17.19806134955167   14.64841914497533
O         7.86164383587740   14.65749857436249   15.37105832293486
O         6.88222645759612   13.49551364320037   12.41236532907159
C         4.52525533200893   16.87683361829131   13.13199355866531
C         4.17977676981970   15.90609919478265   12.43195977696528
C         3.60843276813404   15.50128739289949   11.13380266703336
C         4.16291993404791   14.16080935221370   10.65269458857555
C         3.89941725479807   16.60007599573231   10.10491647694004
C         4.78658637647091   18.38314434269007   15.90212265793039
C         3.70562981093455   19.19505107701885   15.57772131282965
C         3.15422506212328   20.05160982573900   16.51390742212569
C         3.67863107406174   20.11054979903881   17.79443203557038
C         4.75931836298294   19.31206844613493   18.13132044392223
C         5.30560923132638   18.45714059324246   17.19109554071039
C         7.22024715088096   17.90876851034047   14.08271628968626
C         7.81993801428075   18.99330469720804   14.71297603341586
C         9.05476938133234   19.46141340598177   14.29969666800167
C         9.70927844629352   18.84977059360693   13.24467601394536
C         9.12244275639766   17.76972830768637   12.60431977033514
C         7.89040236901855   17.30404832409535   13.02198289291163
C         6.76475818653633   14.74220840188187   15.01819037943292
C         6.12795029600888   14.02017985890073   13.11316202678524
C         2.90321753020708   15.01310149511676   15.49096933714435
C         2.71225849429029   14.00855543676469   14.47998566118362
C         3.55185999978081   12.91489673829057   14.78011031296091
C         4.29747111771857   13.24028737700618   15.95874729335155
C         3.84003260132011   14.51991600925693   16.42765628044672
C         1.99603039701441   16.19539733866151   15.66872117761120
C         1.56270166558371   13.99162565576142   13.51765371513376
C         3.54896303981585   11.57514905991614   14.11098113974207
C         5.10416404029969   12.26123433314092   16.76042724841510
C         4.16898152794065   15.10728706686645   17.76507309872490
H         2.51970933351651   15.40885726586585   11.24254771820471
H         4.02253022052061   13.38728492503950   11.40459343456546
H         3.65773282284393   13.85472974388372    9.73855037583806
H         5.22711602154706   14.24537583556301   10.44625903082850
H         3.47569454655625   16.33120761344497    9.13944962855125
H         4.97342254728525   16.73054973495498    9.99336819497594
H         3.47225317891860   17.54691748195353   10.42639789854887
H         3.29630387206127   19.15412904299790   14.57879750457464
H         2.31412884868674   20.67641800157934   16.24566784766003
H         3.24900039267143   20.77838174935880   18.52701712109354
H         5.17497285463075   19.35637252967598   19.12807921737519
H         6.14968845380459   17.83614874806358   17.45765639210435
H         7.31331830005998   19.47766886508670   15.53620991786550
H         9.50772286616217   20.30438839666922   14.80212783378187
H        10.67438479689105   19.21253135011158   12.92171491674649
H         9.63037464769595   17.28863336683588   11.78105481999911
H         7.43344002020446   16.45631380065871   12.52396721868243
H         1.00994664069278   15.85852068668000   15.99895391515821
H         1.87107582113462   16.74394370288538   14.73414240180889
H         2.38657287513303   16.88569157049048   16.41327424983658
H         0.69817761364699   13.52966971454206   14.00292197810717
H         1.78955348461734   13.41338667345104   12.62400080123152
H         1.27865081395819   15.00026348599841   13.22208262275661
H         2.92680673183566   10.88067451875667   14.68061271705488
H         4.55469817630009   11.16184142609342   14.05415427348602
H         3.14863760859271   11.63700146083120   13.10127783143985
H         5.62542204530933   11.56114689379674   16.10881534779010
H         4.44812113954779   11.69089163595002   17.42272057188188
H         5.84607421165625   12.77278984197948   17.37185153413655
H         3.53403856545530   14.65535923795709   18.53133760883813
H         4.00558062281487   16.18312394973717   17.77837421197084
H         5.20701643219087   14.91637764480176   18.03221165213780

