42
CSD_code = VUHWOM | q = 0 | S = 0 | Stoichiometry = C19H11F8N3Ni | MND = 4
Ni        6.13467765556581    3.79436195187713    3.53316334670894
N         8.23336033897047    4.52853215646209    3.64661936798717
N         6.18750803956140    5.15420769337691    2.14109331107223
N         2.93704950092263    4.49112774085232    0.94574016058114
F         7.07756511730592    2.37181741897363    5.64161604555719
F         5.78234551571738    1.32737907249981    4.25707906901954
F         4.73852905659072    2.08329810413570    6.93503516727006
F         3.61077161357728    2.58010405528562    5.15051239542046
F         5.95259467474945    4.58644540138381    6.87015484937266
F         3.81104051264176    4.86837285746367    6.70648658502925
F         3.92624907979076    5.23554221606621    4.10601205895658
F         5.74751710456173    6.17121913208201    4.82350555117733
C         5.95637310823281    2.54707030707427    4.87734202641470
C         4.76896575554888    2.83313656915822    5.81509981881787
C         4.88228801902766    4.34694024806213    6.07427895308121
C         5.14275950285367    4.94467835354216    4.67521595450516
C         9.18476167469308    4.19724803479062    4.50967985592181
C        10.18665127072533    5.07190551694138    4.90449043360596
C        10.19362262494853    6.35444139916568    4.38406835704297
C         9.21741213155438    6.70538615676101    3.46729663428425
C         8.25525189325827    5.76707064988346    3.11042087619470
C         7.19328108206141    6.03689095803008    2.12697816648464
C         7.20526457576492    7.08743159060147    1.21421524460119
C         6.14647405704669    7.22226348648743    0.32855846077060
C         5.12293069768312    6.29212798677717    0.34260848506391
C         5.18636679853504    5.25020736500941    1.26349981377653
C         4.16343740604428    4.20069595224431    1.35912922650603
C         4.50535362213155    2.95070485035285    1.90800001458410
C         3.48947929707238    2.02204695907980    2.09631184111805
C         2.19759025771342    2.36358784890457    1.72873423747664
C         1.98504590068426    3.59743373753475    1.12651177498718
H         8.02449042423819    7.78709354232108    1.19395812850718
H         4.27932598652141    6.34796736214583   -0.32491075192493
H         1.37893356687403    1.67967368506206    1.88352073771991
H         9.15262197497398    3.19116275534747    4.90241645189973
H         1.00407204645370    3.88909424176114    0.77617778354585
H         9.18918352422528    7.70096632266645    3.05566530835285
H         5.57017478326442    2.64540018298302    2.02430709127970
H        10.93507484609867    4.75069939211118    5.61045489464868
H         6.12814276122159    8.04446186169569   -0.37068962567581
H        10.94433502399852    7.07009957871172    4.68347250437360
H         3.70752717659738    1.05250530432787    2.51786939388387

