76
CSD_code = VUJCIM | q = 0 | S = 0 | Stoichiometry = C35H33N3NiO4 | MND = 4
Ni       -8.03471803850572   -0.12172702497515  -25.80675459539142
O        -7.46948282409331    1.51956220088390  -26.53807741875076
O        -6.54651506466223    2.98733017579219  -27.88932988931681
O        -8.86818872444156    1.98240627522909  -30.11567164420939
O        -9.77490384086681   -2.41622360741066  -23.14819487436640
N        -8.48967330806243   -1.69919256408178  -24.92490746605610
N        -8.60744055343072    0.84121620049162  -24.13654802742960
N        -7.87543251935822   -1.00746051336287  -27.42279456528649
C        -7.05063409856848    1.90113107727374  -27.67726394303818
C        -7.17124063828038    0.87903138607560  -28.85060707701378
C        -8.22664166984605   -0.18790611606430  -28.56601843039853
C        -7.54281707051153   -2.24122742210091  -27.59161209014244
C        -7.40416398294779   -2.81578346639541  -28.95853847576859
C        -6.26615356746416   -2.55523317310043  -29.71484954672992
C        -8.40636766964667   -3.62537048977966  -29.48061906070801
C        -6.13574171084564   -3.09705832307724  -30.97993709773617
C        -8.27718902181311   -4.15134949629558  -30.75369076027754
C        -7.14363140369647   -3.88847171722094  -31.50403193372414
C        -7.33552575607054   -3.15612453479806  -26.48914325216277
C        -7.87338627023603   -2.89913366480243  -25.19958625049962
C        -6.64263439960908   -4.35095481208952  -26.72698459389346
C        -6.47003202435898   -5.29070324777588  -25.74007387136281
C        -7.01639329151780   -5.05535814973994  -24.48339467503202
C        -7.70541015772576   -3.89505080416617  -24.22316526387401
C        -9.28369444041494   -1.53885583259440  -23.83763681290642
C        -9.60374213014503   -0.07250637010860  -23.54084638027817
C       -10.96567738724781    0.33523721185873  -24.14858517858046
C       -10.61610756010796    1.49372390284790  -25.08561370517733
C        -9.36609514020306    2.06310376084916  -24.43374912281042
C        -7.45725640146401    1.09707644085132  -23.25791042020385
C        -6.54828213866121   -0.10425027781890  -23.24038100738015
C        -5.75364197593795   -0.36326105773892  -24.36019990775952
C        -6.53276298272022   -0.99310407824840  -22.17609191802379
C        -4.96527064737082   -1.50213946426305  -24.40387109622221
C        -5.73791674143128   -2.12671500816103  -22.22273935960591
C        -4.96087669220938   -2.38640306024198  -23.33739027216570
C        -7.50072400420697    1.62201045229171  -30.15666063784406
C        -7.16310475730132    0.75156713378017  -31.34611423830203
C        -8.14361504982677    0.00584688036579  -31.98617709632881
C        -5.84933207798559    0.66471268351786  -31.79039426032392
C        -7.81765389741465   -0.81427887048613  -33.05203570430182
C        -5.52445855328912   -0.15171290819377  -32.85743561347503
C        -6.50823775034012   -0.89400658212884  -33.49072023508719
H        -6.18603894994758    0.41189690654798  -28.95875532232366
H        -9.17327439195075    0.32512043130342  -28.35600178380138
H        -8.35860089385449   -0.80703349688166  -29.46002112194628
H        -5.48083261233582   -1.93862558614269  -29.30360074620588
H        -9.28575344835324   -3.83090485282074  -28.88832169398123
H        -5.24789355231248   -2.89496241641670  -31.55860017964179
H        -9.06354289713863   -4.77041881952835  -31.15862769448374
H        -7.04417844814979   -4.30231698271728  -32.49579339121674
H        -6.22284955623783   -4.52225008448769  -27.70731189818250
H        -5.92185875722543   -6.19844028544173  -25.94016574821540
H        -6.89526966836602   -5.78563883016284  -23.69708044806020
H        -8.12007056996917   -3.73492415810360  -23.24304008064179
H        -9.62945378293547    0.04460426956112  -22.44872905141601
H       -11.43236258850834   -0.49829236665458  -24.67221521230261
H       -11.64707204539103    0.66127255314558  -23.36292400554368
H       -10.34811723154341    1.11146647772434  -26.07963399173574
H       -11.42025378203376    2.21856914334284  -25.18803581315440
H        -9.61496647679109    2.58777025357580  -23.50139144632308
H        -8.79264526304907    2.71922833050850  -25.08799137851867
H        -6.92074591513809    1.95602762821654  -23.67093438128411
H        -7.80259373598274    1.34271427380037  -22.24344958257388
H        -5.69716602868142    0.36872156541497  -25.16455051451834
H        -7.14449217893515   -0.80384352365585  -21.30556641954729
H        -4.34785552803783   -1.69795229058741  -25.26813176912516
H        -5.73332717865766   -2.81186741211116  -21.38837348086893
H        -4.35112512214374   -3.27644460181953  -23.37630691907511
H        -6.87011761664233    2.52420305717580  -30.16796016531297
H        -9.16728270240732    0.08038255920138  -31.64834545906442
H        -5.08417615182649    1.24806709896955  -31.29804495176374
H        -8.58977083935869   -1.39009527976552  -33.54113609828680
H        -4.50137390170956   -0.20587850884201  -33.20071753464330
H        -6.25380380809048   -1.52931796650508  -34.32639053006960
H        -9.03176644145845    2.63216976926959  -30.80590341623086

