114
CSD_code = VUJFIR | q = 0 | S = 0 | Stoichiometry = C53H56NOP2Rh | MND = 4
Rh       -0.59073661679303    1.47677140894714    4.14120978744735
P        -0.00243747867333   -0.52841630871554    4.96944777756948
P        -2.73843791508308    0.98773081408198    3.76984318992573
O         1.34156644676190    2.22134040692350    4.25535553560757
N        -0.33007423306805    3.48653876754866    3.70414940990827
C         0.94992834616717    3.39409790983562    3.94296220342437
C         2.03112218016570    4.47678827017730    3.89364985612206
C         2.79483055942100    4.40920330158840    5.22474535210911
H         2.17276171810837    4.74066655315348    6.05381359621106
H         3.67643162443351    5.04611003409611    5.18418045539580
H         3.10787983374607    3.38534136033078    5.41767031106374
C         1.51869075547535    5.89597217133924    3.66153690804067
H         1.07080165537839    6.00564745934970    2.67816131141896
H         2.35400120707161    6.59163158527392    3.73231394334302
H         0.77643415342914    6.17960496389239    4.40297997826144
C         3.00448604202648    4.07830169249584    2.77342136398416
H         3.33613944534671    3.05260607301559    2.92161277026606
H         3.87290075139386    4.73446532953731    2.78258286621649
H         2.53367760543423    4.15193298256338    1.79485911551766
C        -1.16421057534697    4.55695502987869    3.41685046258035
C        -1.95521761131293    5.09614116732887    4.44804814624308
C        -2.79456476856863    6.15915863678026    4.15282642260825
H        -3.38123838568426    6.61536116834302    4.93582132610493
C        -2.90189326244324    6.63932611387220    2.86192396096895
H        -3.56007549982035    7.46911122662360    2.64722252206651
C        -2.18379852322781    6.04719928059551    1.83771447622283
H        -2.31430979325535    6.41302975646006    0.83163537260229
C        -1.30465580985833    5.00913284336409    2.09218561349060
C        -0.50025284251003    4.33871929857627    0.99811649520450
H         0.50889412885586    4.16835192789585    1.38673605610073
C        -1.09007366978317    2.96508384283831    0.66784914051483
H        -1.06289317257086    2.31934121819009    1.55225353318745
H        -0.51444558922245    2.48969919173649   -0.12466717349505
H        -2.12339804486632    3.06147531765691    0.34336641112492
C        -0.37335667095583    5.17527915029421   -0.27308916210891
H        -1.33022923537236    5.25698080944020   -0.78352716063159
H         0.32963079352709    4.70045760790499   -0.95548493216467
H        -0.00734503996746    6.17504087753430   -0.04695468046131
C        -1.89314237952470    4.49748019844912    5.83776712642636
H        -1.58441304400275    3.44161518853831    5.72353802763275
C        -3.23716190903019    4.51351470497428    6.56795399435990
H        -3.52556752872770    5.52636106992658    6.84071872264637
H        -3.16085750525077    3.92907224225109    7.48303880318770
H        -4.02885211610807    4.07834699971852    5.96225865001190
C        -0.85052200318067    5.21143227894157    6.70085782300825
H         0.14114648631981    5.10342606195843    6.27227695089660
H        -0.83845758675658    4.78881310374612    7.70419392260323
H        -1.08253081785201    6.27310112284184    6.77485142044150
C        -3.82786823074944    1.00046376295416    5.23585751184748
C        -3.20960660876365    1.00842770130305    6.48139756123881
H        -2.12466838902120    1.02775600428232    6.52457368828269
C        -3.96177421891229    1.00565744355083    7.64163327517277
H        -3.47109823947556    1.00734568792570    8.60469703595799
C        -5.34487668638566    1.00630014348423    7.56463184790866
H        -5.93791676035326    1.00878661995487    8.46753083684361
C        -5.96892385143716    1.01481346257837    6.32726642831713
H        -7.04795866344009    1.02494403586374    6.26827261625672
C        -5.21740423503671    1.01280494067776    5.16560770917671
H        -5.70827958816998    1.03365842010169    4.20206010301237
C        -3.78680134715032    1.91364587460666    2.58111627457816
C        -4.22767810889093    3.18045874938732    2.94991037244214
H        -3.97942062820056    3.55813688303101    3.92914745896960
C        -4.97044770248113    3.95199630706874    2.07824231133547
H        -5.30247173663481    4.93383926287295    2.38079548035747
C        -5.27989655970003    3.46860448382383    0.81749184776687
H        -5.85835747339751    4.07006104421134    0.13153678749714
C        -4.84131949339291    2.21106690866702    0.43879424166754
H        -5.07630163138836    1.82949664575041   -0.54479436401703
C        -4.09503192978747    1.43780959725029    1.31110665880254
H        -3.75196455393966    0.46220879995852    0.99868404939520
C        -2.97826218256357   -0.69310122586232    3.08594071988502
C        -4.02016466224805   -1.55072195701341    3.40667564539465
H        -4.75341861199293   -1.26277865848376    4.14558923530880
C        -4.11538915506313   -2.78473276585472    2.78649737610050
H        -4.92587186879708   -3.45114605224380    3.04424591991371
C        -3.18148472189262   -3.16769421238578    1.83995781849093
H        -3.26563043732909   -4.12990952432242    1.35658837296360
C        -2.13399705250639   -2.31871799362008    1.51983825331038
H        -1.39925403151130   -2.61724059449506    0.78611927020897
C        -2.03146669103316   -1.09268860651881    2.14649183374442
H        -1.21109075800968   -0.41968700998780    1.91747264157104
C        -0.87173344578234   -2.13941944989432    5.01003316740473
C        -1.98033725575761   -2.27046986115147    5.84221948688705
H        -2.29082628816089   -1.43012699773426    6.44829078922394
C        -2.67317482462350   -3.46317891715297    5.90531635672789
H        -3.52577774003571   -3.55604070408732    6.56262316024376
C        -2.27479426900950   -4.53833551339412    5.12713206438002
H        -2.81271530481998   -5.47354637239318    5.17889687796623
C        -1.18840202859327   -4.40830367619587    4.27983798904488
H        -0.87953505519391   -5.24177711607644    3.66545793337296
C        -0.49234908452006   -3.21430518602334    4.21613035749773
H         0.35504289961218   -3.11856323637358    3.55203802750844
C         1.60321435130823   -1.01635856874689    4.24190350186168
C         2.52809351321906   -1.83183516694610    4.88320229999894
H         2.32014504645218   -2.21345333474802    5.87256945474227
C         3.72012834512065   -2.14997341876290    4.25738325403055
H         4.43838108950917   -2.78205011302064    4.76006344449675
C         3.99831760175626   -1.65840023515425    2.99215393340277
H         4.93249847376322   -1.90804740899019    2.51003810318657
C         3.08248386516821   -0.84044028785350    2.35089105517550
H         3.30253884549954   -0.44961463349907    1.36761025622983
C         1.89121097419570   -0.52067355967111    2.97495171578985
H         1.17392481339228    0.13929288357527    2.49450506994529
C         0.42266847170574   -0.37233519008557    6.74508628930567
C         0.63991846916220    0.91485838645497    7.22814497103493
H         0.54529988933323    1.75400610990524    6.54548425755331
C         0.97859039151543    1.12312729916741    8.55214377753029
H         1.14753555756362    2.12616329805275    8.91689077274023
C         1.09864763011213    0.04339105694563    9.41160924774861
H         1.36092189997736    0.20081728568158   10.44777093236337
C         0.87681295404070   -1.24043977316567    8.94107828023734
H         0.96578899136945   -2.08367298654113    9.61130512048754
C         0.53928602291292   -1.45145864449217    7.61587558907619
H         0.35211790507565   -2.45674235847152    7.26420763976896

