45
CSD_code = VUJJUH | q = 0 | S = 0 | Stoichiometry = C24H14Cl2F2N2Zn | MND = 4
C         2.65943636683571    3.11200189463181    8.09668802438376
C         3.01660775431783    4.14892108009409    7.13151276683758
C         2.47084143368105    4.61879779801041    5.95887479115318
H         1.59343458899374    4.17072240335987    5.51930855313718
C         3.07434104158491    5.72115810333287    5.32868998696468
H         2.64259770584710    6.07741464830929    4.40529801526093
C         4.17771556746317    6.35808234282740    5.84296959425485
H         4.60920458636358    7.20305745616413    5.32739833595660
C         4.74653991227028    5.92465467825491    7.06098371595452
C         4.14353465064533    4.81681844241391    7.66781299865891
C         5.83700308786443    6.49966847688325    7.75038458508331
H         6.34541514567012    7.35085879212246    7.32260506321097
C         6.23531647678074    5.99120702597527    8.96295709284269
H         7.05985968973937    6.45465353962333    9.48383815495919
C         5.60842749737421    4.88716540945541    9.56688220004113
H         5.95069829961046    4.54367529226584   10.53055402229468
C         4.56244087379517    4.28111816962367    8.90933441779864
C         3.63485686452407    3.19571931434552    9.21914004419141
C         0.80564673215665    1.96713658464203    7.15541199260114
C        -0.54716651080718    1.83776888820126    7.48012248198589
H        -0.86905406581613    2.04944186475471    8.48921976483921
C        -1.46125168861734    1.47383964275183    6.51360975185367
H        -2.51104150500731    1.38553499633249    6.74277352001057
C        -1.01027134353268    1.20090419713083    5.23190641171999
C         0.33092505611442    1.28180460501615    4.89586685699060
H         0.65016399867021    1.03376709570371    3.89594400133509
C         1.23849171046683    1.67654360178957    5.85794806760267
H         2.29297533411584    1.71335468943974    5.62818560725326
C         4.38172935627454    2.27188859934188   11.27475798805739
C         3.87535433117388    2.20749446438085   12.57551942077982
H         2.81712443011734    2.35285782555490   12.73566779028140
C         4.72376668088279    1.99130643380028   13.64109655068466
H         4.35199399837447    1.95492669901429   14.65239185375403
C         6.07414321720254    1.79959127493223   13.39553382946948
C         6.59361681802429    1.81676507590041   12.11172959998721
H         7.64481259501517    1.63316633115004   11.95576516439799
C         5.74625923268730    2.06437454512480   11.05068252300800
H         6.12317122404679    2.04751996076454   10.03896353158444
N         1.70181566621808    2.26780923384544    8.16340187132583
N         3.49351718361650    2.42232635771975   10.22717332985529
F        -1.89616952238536    0.83766394096312    4.28776853635894
F         6.90481617212943    1.58046442187778   14.42994266934002
Cl        0.21619068760030    2.77496174065727   11.22580196051290
Cl        1.89579948980435   -0.74698987590233   10.04980632898478
Zn        1.58706917809912    1.40678193740493   10.14327623243370

