53
CSD_code = VUJKOC | q = 0 | S = 0 | Stoichiometry = C26H14Cl2F6N2O2Zn | MND = 4
C         8.52652395491433    6.70156747864393   -0.56928168752744
C         9.54883004114802    7.16751938388799   -1.50132004467812
C        10.00306636381516    6.75738938154884   -2.73412475551926
H         9.55661227340023    5.92732673345309   -3.25889361497472
C        11.08731470181495    7.44018341829505   -3.31270377915377
H        11.43258384934512    7.11521057938347   -4.28262943009391
C        11.71975583087535    8.49062750161124   -2.69211632411186
H        12.55087152705966    8.98583172878673   -3.17151936606797
C        11.29828095283992    8.92270728912650   -1.41485556223793
C        10.20867647086363    8.24257559672051   -0.85880083847832
C        11.86634900453880    9.94613847090530   -0.62413171146205
H        12.70475085071842   10.50850360805597   -1.00705473754798
C        11.36692488712872   10.21208744844438    0.62816951288558
H        11.82473469488195   10.98713021247726    1.22438664910586
C        10.27961263945586    9.51053255073904    1.17774871853980
H         9.94078123988706    9.75027373386491    2.17351382298628
C         9.68209318392072    8.52539804407443    0.42474605627115
C         8.61042412391373    7.55896020862469    0.64829864586693
C         7.41896919434714    4.93552658889873   -1.69543778793542
C         7.41091648273465    3.54868698572703   -1.53356336042169
H         7.68458658691675    3.12661358970333   -0.57812664144923
C         7.08495443306240    2.73111165569976   -2.59638850711166
H         7.09111238609573    1.65816928819741   -2.49105112324377
C         6.72713977082900    3.29975338861587   -3.80986864045072
C         6.68823514074940    4.67541196381060   -3.97546073937102
H         6.38211294049165    5.10196395904449   -4.91779257253633
C         7.04530948654136    5.49250069175355   -2.92078421823222
H         6.99581473309385    6.56581364632401   -3.02541086006085
C         7.24669644780917    2.30567584648224   -5.83406137084769
C         7.70919396922942    8.07061709292443    2.78343813135624
C         7.68710934822012    7.43176154831816    4.02283030927041
H         7.85628877078948    6.36622085629758    4.07024192102863
C         7.47966524399573    8.15159034481904    5.18445093735032
H         7.48393935666957    7.63018571361597    6.12802428096074
C         7.25412617679714    9.51710770482023    5.10255860229776
C         7.23297756511337   10.16185116499804    3.87109179097451
H         7.02640840034378   11.21904466814118    3.84136026196290
C         7.46955337509229    9.44720192568050    2.71732270915979
H         7.42057364894760    9.93549190324765    1.75583653139803
C         7.03912933776908    9.86713585603978    7.43161344556124
Cl        4.64735230302690    5.96236932100521    1.18226039462074
Cl        8.02173074115450    3.90609448126848    2.29105499781665
F         7.53254347352787    3.44765934174848   -6.49411446181293
F         6.80577328924062    1.44225250141577   -6.73678368686271
F         8.44073327002603    1.85518657293483   -5.40136843022037
F         6.81862899628024   10.86140554872471    8.28262266601732
F         6.10771858651797    8.93321097164886    7.67132633813799
F         8.21229363791817    9.30968554144473    7.78150345027712
N         7.69249891757389    5.73533842706087   -0.60032574707449
N         7.85055986646162    7.30349274759626    1.64301806504445
O         6.35622525609195    2.44545328720956   -4.87529825863144
O         7.02268059962643   10.35159595846233    6.20355544029024
Zn        6.75796167639218    5.45305554768182    1.33999457893467

