45
CSD_code = VUJKES | q = 0 | S = 0 | Stoichiometry = C24H14Br2Cl2N2Zn | MND = 4
C         3.92505644383627    2.64115095194190    8.85372692714173
C         3.30820316096960    1.67341299801609    9.75708198110468
C         3.57888135602723    1.21298730396203   11.02542878024382
H         4.38955023186929    1.61139480242887   11.61538661876824
C         2.77743006506857    0.18686579132032   11.55565489359071
H         2.99368600125725   -0.16163996481033   12.55448197494499
C         1.74452267944810   -0.38598653779547   10.85375747493220
H         1.15442404082344   -1.17359996315373   11.29795000028157
C         1.45657142526974    0.03820539019420    9.53758551721881
C         2.25312389204209    1.07121029543958    9.03045167210700
C         0.47395681719907   -0.48050713804951    8.66548365463798
H        -0.17461535756474   -1.27261649609403    9.00865374217449
C         0.35673501183336    0.00690071105931    7.38626313004081
H        -0.38865158063029   -0.41353484304658    6.72783445187766
C         1.17527707828664    1.03514683629863    6.88718351491998
H         1.05093659233735    1.36385374699561    5.86715189567629
C         2.12328073303715    1.58683980544027    7.71845964167622
C         3.17531955717693    2.58880890851056    7.56793237397102
C         5.66038882477179    3.67603602595154   10.10085858837717
C         7.05629340992429    3.68532702644371   10.03309532458396
H         7.54133130802005    3.40808443122042    9.10879920733699
C         7.80286030458876    4.01841398585403   11.14335761559657
H         8.88077702157391    4.00912464686802   11.09828451689237
C         7.15576340064241    4.38230157407045   12.31568662570398
C         5.77137637850725    4.41951635279739   12.38824585253331
H         5.28366780989228    4.73300473825936   13.29845033514604
C         5.02426872385534    4.05600624367518   11.28671079643851
H         3.94642223028645    4.11386878701430   11.31907933281220
C         2.90681160352869    3.49369541891057    5.38868844934373
C         3.65707829004646    3.48142966729075    4.20952912703793
H         4.71283923660012    3.25890588942108    4.25837106927373
C         3.04813511859179    3.72355198107561    2.99649618432157
H         3.62237364108126    3.69763575524437    2.08347747780053
C         1.69249549900308    4.01777509577964    2.96109301654190
C         0.94139818532029    4.07641294470843    4.12543461198271
H        -0.10536947108074    4.33555751838648    4.08369967528199
C         1.54431126913023    3.80429970516324    5.33624240122695
H         0.97890916423471    3.88151766995181    6.25301460140418
Br        8.17918159996731    4.85055946700123   13.84456665762231
Br        0.85075301378307    4.35955893074164    1.29424300087128
Cl        4.94803686979199    6.45143064843767    7.25341401975375
Cl        7.02138822680406    3.09462019946051    6.16379186966197
N         4.94573980987407    3.40477294462385    8.95136852839772
N         3.56359395876816    3.31435862158117    6.58930960629380
Zn        5.41768642420546    4.32934113141135    7.05392326245588

