56
CSD_code = VUJMEU | q = 0 | S = 0 | Stoichiometry = C25H22BrN4O3Re | MND = 6
Re        0.24667594690312    4.20403240318815    5.20354005626897
Br        2.22391856808426    3.32678096629452    6.49293156601669
N        -0.84331743946340    4.18682221331145    7.27095684544037
O         1.71730976370159    3.82407684073269    2.50843213697985
N        -0.54001739119294    1.99566723493923    5.44430703983366
O        -2.40418819134347    5.02278708158902    3.86020985255216
C        -1.31232358076306    4.30705413234651   14.03986260498476
H        -1.36136414881961    4.23835142993573   15.11647196522275
N        -1.04970962837764    4.48084357759588    9.91593050220189
O         1.26628113373982    7.11030237403274    5.45224664293869
C        -1.72173025967104    3.00905567801844    7.34692008115068
H        -2.60324930422035    3.19235394964266    6.72222959582647
H        -2.05180868298668    2.83230658954680    8.37717978294404
C         1.15508575686227    3.97093904714396    3.49668510486944
C        -2.66607901341280    6.32891061840373   11.22610283908136
H        -3.29340593634371    7.04390572229016   11.74018072986679
C         1.21093486744687    1.52800507885392   -0.48100576084490
H         0.78458692484115    1.94317228798221   -1.38326107506253
C         1.00463208324686    1.00991245979758    1.89349217433506
C        -1.41100145669826    4.72228517134138    4.35957546373963
C         0.44735247939893    1.55122727447646    0.70230607433747
C        -0.87198380647096    1.53730320596474    3.09994104260526
C        -1.71144891892470    5.38859425116235    9.24812410361713
C        -1.96186057378115    5.36234639566316   11.97600128195960
C        -1.51935433866085    5.39536815524907    7.75064383065473
H        -2.48169707860191    5.50716642761170    7.24044259885572
H        -0.90733749709383    6.26775671936824    7.49061810109788
C         3.01978180639549    0.46634920686573    0.70072446566097
H         4.01979407298982    0.05884481851823    0.67867300812454
C        -2.02555391175988    5.26903014904604   13.37947455128218
H        -2.64442047863986    5.97108358641964   13.92025802700063
C        -0.84884900038578    2.09854193500400    0.78108101196803
H        -1.29926308129210    2.52509154872939   -0.10425895540569
N         0.32763291780662    1.01389904393387    3.05660760684013
C        -1.52177271823584    1.52075978661862    4.46224822188510
H        -2.41169109597149    2.15504628262554    4.47085990803759
H        -1.82795088532377    0.48887651186848    4.69743852424550
C        -1.14870404719636    4.44280661424626   11.25988677653693
C         2.47005217811597    0.99617183985512   -0.47855229477469
H         3.05616357758345    0.98395213635610   -1.38570316353488
C        -0.50765836843322    3.40156051579874   13.32968823661870
H         0.04963505262854    2.65321987014958   13.87339634898712
C         2.30580244057406    0.46880648053229    1.86584956590660
H         2.71469090962327    0.07461909295637    2.78305801932037
C        -0.95781452881083    1.78668092401529    6.83681666379884
H        -0.06474213781024    1.65320657899803    7.45605706248140
H        -1.57988618276039    0.88789763644710    6.93412670868472
C        -0.42446858342665    3.46224900077118   11.96623048224766
H         0.19365881355718    2.77885807012936   11.40489495550402
C         0.87657464209740    6.03905838966030    5.32013991975843
C        -1.51244768795392    2.09535809012467    1.97783432360346
H        -2.50015294966925    2.51876761084391    2.07469733186894
C        -2.54371835836319    6.34634735304484    9.86515960549465
H        -3.06365694152690    7.07182706513318    9.25822883716560
H        -0.08752486825570    4.02077010904369    7.95150516466980
H         0.29918913704111    1.43139246577916    5.26461390455031

