107
CSD_code = VUJPIB | q = 0 | S = 0 | Stoichiometry = C36H62IN4PPdSi2 | MND = 4
Pd        5.33588332635611    1.90292865749012   13.90361534794257
I         4.00091914734423   -0.37732824968675   13.87537362569234
N         2.83249269334443    3.19042178994373   13.00547296723991
N         2.88057657048793    3.04954332406957   15.17471185475839
N         7.97669200141933    0.77450027020709   14.76498852703507
N         7.55446795765921    0.24548015915602   12.69963584004091
P         6.48245099928668    3.91444665483854   14.16407355029776
Si        5.33330224258979    5.83769868172000   14.18682973841462
Si        7.62024023839320    4.08638607422180   12.24401458526264
C         3.59169149829193    2.81803149999514   14.05537343210164
C         1.63295996660450    3.69977800135898   13.44719410073522
C         0.54787778231011    4.25417509611511   12.78777408926345
H         0.52409592296434    4.34307147822325   11.71299561679399
C        -0.50350286015512    4.70209919997928   13.56607367941889
H        -1.36513262608838    5.14117703096166   13.08689975582018
C        -0.47639164294801    4.60426797768591   14.95498853172401
H        -1.31822013637649    4.96846838510779   15.52369521306748
C         0.60422836770619    4.05751358449680   15.62209355027128
H         0.62290729179829    3.99617108678804   16.69874570516643
C         1.66288614421512    3.60548571140336   14.85051228652848
C         7.08358819886629    0.92833701553195   13.76513734922620
C         9.04023173675834    0.01369115709697   14.33915827337569
C        10.20484882294119   -0.40738360049384   14.96263219960703
H        10.41696713335619   -0.16677137590693   15.99268565320197
C        11.09694985441262   -1.14631794277908   14.20995614473505
H        12.01465849388328   -1.48803761450657   14.66372586665647
C        10.84497349158467   -1.45280592542606   12.87481248718878
H        11.57546790587337   -2.02003958678782   12.31851860636245
C         9.68377233764680   -1.04550704735687   12.24653753366347
H         9.50504015220930   -1.27683085587858   11.20867941143236
C         8.77433431043089   -0.31800470999813   12.99833116825726
C         3.23471817013627    3.00512379270737   11.63387328828861
H         4.31009466410240    2.74196323820000   11.66217323767120
H         3.11682150404097    3.94799920884985   11.08886699679209
C         2.44035603401977    1.89421637835270   10.94390469077927
H         2.56755249956336    0.96241009454955   11.49891888916514
H         1.37665177237510    2.14161551994532   10.95766091109464
C         2.90223856361839    1.69740297114429    9.50313320483297
H         3.96558781313711    1.44821141213309    9.49418617284670
H         2.77766424785354    2.63141089841822    8.94891844042507
C         2.11903352728653    0.58765028371418    8.81418150434864
H         2.47138040083842    0.44789048475666    7.79510798640129
H         1.05961299392333    0.83171251134888    8.78108201538815
H         2.23552169112966   -0.35039166398310    9.35175867144981
C         3.34190285290545    2.76387980716244   16.51078663756245
H         3.14639261729623    3.63589758954569   17.14346383477598
H         4.43375767057495    2.61365051948518   16.44854139291366
C         2.65067108916445    1.53443695929803   17.10462688393535
H         2.91949876793633    0.64832916628165   16.52825143170392
H         1.56804529637331    1.65951303075805   17.02679653688359
C         3.03551162824807    1.32816887312990   18.56588570964976
H         4.11730838222986    1.20316418670576   18.63950283906720
H         2.76416454863956    2.21579294475698   19.14369800078537
C         2.34232309643072    0.10630792721169   19.15459343894587
H         2.63570672449234   -0.03777578665568   20.19173663007282
H         2.60654429737803   -0.78661187410668   18.59372296632459
H         1.26181167622600    0.22521428275538   19.11697377348398
C         7.79581058145500    1.30293997433864   16.09687333390381
H         7.60501102920364    2.38265581447608   16.01812269370540
H         8.71819949653888    1.14134918832956   16.65834343388518
C         6.61314700477617    0.62658347740443   16.79380493725889
H         6.46778707784369    1.09904908624088   17.76796791057253
H         5.70969639424207    0.80329098329634   16.18287534605536
C         6.82120238082711   -0.87565824507413   16.97295260807772
H         7.72433415915152   -1.04773470933416   17.56567017102132
H         6.96892850837417   -1.34285234750533   15.99627134489679
C         5.62715487554255   -1.53120097995965   17.65363642386116
H         5.80308025303671   -2.59572182749056   17.78572710197099
H         4.73502424376794   -1.40966324577161   17.04454333778373
H         5.44848302145688   -1.08788058847063   18.63107984393888
C         6.84310095083853    0.08967402490741   11.45371843810775
H         7.44924641400071    0.50210758906673   10.64055453408894
H         5.91431063317846    0.67933318620614   11.54863471390524
C         6.47982034575036   -1.37070507455451   11.16976349654142
H         6.10725993584039   -1.82267007336441   12.09053350622519
H         7.36553720406464   -1.92623637537699   10.85861117468714
C         5.39722911052862   -1.49270361598756   10.09950543872082
H         5.11670506035392   -2.54407896658027   10.01699630969757
H         4.51175788487545   -0.94623937542494   10.42749576515765
C         5.84143140625257   -0.98759114602356    8.73190185663994
H         5.06000352656961   -1.16266251296125    7.99647448169059
H         6.73919795837528   -1.50877250089526    8.40528612715827
H         6.05230526638063    0.07923139291244    8.75062640783296
C         4.31478449897300    6.34878054302723   12.63696670303187
H         4.22872191437215    7.43014562482750   12.59118688018825
H         3.30686300148534    5.94445942657862   12.66411374461662
H         4.78878149060845    6.01541469741580   11.71865691321694
C         4.14610103278558    5.99313669723113   15.68451460068608
H         4.02536123816460    7.04203856356992   15.93689216272417
H         4.55084989352895    5.49125853578708   16.55744244511062
H         3.15599886857162    5.59828881905896   15.48543265063219
C         6.64202816440853    7.19237133006855   14.52342812243109
H         6.26434508095069    7.91333067917364   15.24057934856641
H         6.90386554644905    7.73646014640880   13.62429425920531
H         7.55236320327349    6.76674143614911   14.93101000660100
C         6.74408396439754    3.59399496340984   10.59546857288827
H         7.47456779674553    3.50553288724851    9.79574579805011
H         6.02522084996228    4.35253809005343   10.29727604114020
H         6.21580752843911    2.64776114055216   10.66448079050395
C         9.23224142301805    3.04651737149924   12.39110879826937
H        10.07744212389599    3.63538000418100   12.04958925595423
H         9.20896124797330    2.14132364408120   11.79312501606171
H         9.42946999038757    2.76230094127039   13.42038929310327
C         8.23458849440133    5.85608534951944   11.89216876552885
H         8.89193281868616    5.84102930574872   11.02903626278007
H         8.79650600381791    6.25352226453059   12.72828132375715
H         7.42171924849252    6.53911572378010   11.67685873097361

