51
CSD_code = VUJRIB | q = 1 | S = 0 | Stoichiometry = C12H32IMoOP4(1+) | MND = 6
I         8.46526554859653    4.29714881493587    3.27494550234000
Mo        9.16413215897082    1.97485990817541    4.57155155787044
P         9.45312777754806    1.07098955176015    2.35178956088519
P        11.31332144413372    3.04373128782693    4.78892153724235
P         6.90459195912130    1.19436308161552    4.20944455630588
P         8.78589335865019    3.16004001592715    6.64666813264068
O         9.55947142562031    0.59224755314558    5.33651124647547
C        10.20933995226799    1.86855893635192    0.90086453067391
C        10.33986881326618   -0.51434007762630    2.43526966749249
C         7.80564580696922    0.59122744300926    1.67287962342721
C         6.94962383565433    0.01225125361944    2.79142832302382
C         5.47645829333803    2.24468109048215    3.79337934343717
C         6.24490702770517    0.13625049931610    5.53276722655419
C        12.29392848107538    3.85654464445594    3.48815450981599
C        12.51406632983568    1.88939105220124    5.51871159714958
C        11.20521629948106    4.38414319906532    6.05153842250034
C        10.38056158977162    3.89397126515061    7.23473593636473
C         7.61446094040992    4.53806283489299    6.86518997761442
C         8.37012706938930    2.06925514960510    8.04047100621040
H        11.27129089812048    2.03259179602188    1.08460086842143
H        10.09092660194009    1.21636972872798    0.03438202800240
H         9.72893995842719    2.82723338204969    0.70267566220147
H         9.95391901715122   -1.10146585824312    3.27047692320297
H        10.23560362648860   -1.06670508264226    1.49973999465402
H        11.39549608286502   -0.30882772228916    2.62062785280684
H         7.34230779401659    1.49892219831934    1.26358302045148
H         7.93900514962397   -0.12418316629414    0.85402485974649
H         7.39646406351054   -0.91753012592488    3.16592753618950
H         5.93084063284247   -0.20119829221099    2.45074628791578
H         5.33853142039904    2.99888967281156    4.56923697624504
H         5.64219890589435    2.75711811109465    2.84541447394799
H         4.58256110788176    1.62380086605031    3.72597810400040
H         5.86852977307272    0.76176697787585    6.34271939483730
H         5.43182296737102   -0.48231316395233    5.14850174594893
H         7.05018179385124   -0.49586419341163    5.91038721528553
H        13.16250035813959    4.33740071681078    3.94059006553468
H        12.63275577679267    3.10876527400043    2.77013036513331
H        11.69205075924009    4.60590481178473    2.97261953112436
H        12.04093519042569    1.33878276189884    6.33373854885276
H        12.81092523006098    1.17241923488142    4.75146724228693
H        13.39559605573770    2.42299138574121    5.87884373242180
H        12.21453272581790    4.67788400494630    6.36032913682143
H        10.72689099282458    5.25051266776180    5.57609710145725
H        10.17640740341330    4.70308487036296    7.94359737008152
H        10.92188453356973    3.09854382857961    7.76154439742333
H         7.60195001704427    4.83681272756436    7.91395669827557
H         7.90373641580529    5.38651611269697    6.24436372717093
H         6.61558658903732    4.21470859926070    6.56800708318630
H         7.31429488843608    1.80348495056466    7.99195468526774
H         8.96911909997603    1.16011732299001    7.96566173827915
H         8.57230605843713    2.57598809833233    8.98595337481137

