95
CSD_code = VUJRUP | q = 0 | S = 0 | Stoichiometry = C40H46IN4NiO2P | MND = 4
I         3.48645088827319    4.89184542463636   26.21461374677144
Ni        2.72411878489330    3.33631968473646   24.44757312738919
P         2.16737593882383    1.62048410320660   23.21298947927443
O        -0.46698294107779    1.58512564794134   23.50875500273939
N         0.51064390020102    2.63982695056764   26.18595796586297
N        -0.00078751688417    4.29040357848980   24.86062542540552
O         4.17653170568870    1.80037642348070   21.45779394459597
N         5.48997617835980    2.52658608272309   24.13520842341525
N         4.98547740420472    4.21990253874259   22.86082607799255
C        -0.76819883383038    3.02024245956873   26.52123595681254
C        -1.67477217096369    2.55804387306448   27.46423002897723
H        -1.44926160221693    1.73176681085126   28.11797479133633
C        -3.21831080109356    4.25938185321552   26.70845993188578
H        -4.18463666513091    4.73138798836275   26.80183784631869
C         7.29369273954449    4.60324448100221   21.89362444522517
H         7.06536899725005    5.44315623759097   21.25829855661799
C        -2.89867956099103    3.19169262056046   27.54230352400143
H        -3.62423735976694    2.85218410304978   28.26589037654262
C        -2.32747452166899    4.72582856775065   25.76253143577252
H        -2.59554104225690    5.55266166199949   25.12569083659925
C         0.16946065378116    5.29475315606216   23.82814392788604
H         1.14941697635097    5.06409660413394   23.37115171185280
C         6.32824570520096    3.98594863996941   22.67494999647898
C        -1.09675248148756    4.09309538980110   25.67043055008995
C         1.30315319822119    1.57876814284053   26.77889534066357
H         2.26790151096136    1.60977872946290   26.24116712954499
C         2.43288806061114    0.37386208745225   20.72462723571575
C         6.65437124713994    2.89033084640288   23.49760787357980
C         1.68259694556971   -0.70351962344468   21.18450373801996
H         1.57443575267556   -0.86769579340623   22.24889355730408
C         0.23841317442791    6.69266087989327   24.43777164028791
H        -0.69234047145880    6.94299574175610   24.93962202722351
H         0.42084185126122    7.42507684669274   23.65545129396083
H         1.04649422259945    6.75098949998092   25.16367177375423
C         7.94963105849171    2.39534482180954   23.54107795513701
H         8.22110705790798    1.55362584384666   24.15684460399616
C        -0.90423264849068    5.18052734935678   22.74870259026551
H        -1.08650256284684    4.13709425462406   22.50237510976757
H        -0.57917352979788    5.69572386338184   21.84777168678419
H        -1.84016334798309    5.62433870036060   23.07525820482194
C         1.57632494989553    1.85133886181400   28.25476501585494
H         2.04889136150440    2.82357508990780   28.37662432645807
H         2.24744912810686    1.09065451289822   28.64533479694224
H         0.66047179636982    1.83724162598952   28.83817734083527
C         8.90116960201787    3.01678453073410   22.75704938931850
H         9.91695174310490    2.65166389655792   22.77045872836374
C         8.57932830205585    4.10299229205326   21.94860655751454
H         9.35134214224210    4.56250300818534   21.35016749857409
C         0.96084220383276    3.39945719453096   25.17203016380880
C         1.09068606713830   -1.57041307798258   20.28546430046389
H         0.51011811529764   -2.40601077876459   20.64798033548642
C         2.60973152962239    0.55076622497442   19.35522560960316
H         3.21292221173316    1.37687371406141   19.00805835627912
C         3.06266301734457    1.33643407494831   21.66234617915667
C         0.65862541239070    0.22032252163605   26.52410327814644
H        -0.23953626339859    0.09012058640738   27.12103570741736
H         1.35866640980677   -0.57402135253889   26.77033283621125
H         0.38661684031533    0.13976217845344   25.47331133922116
C         4.16552465391908    5.23441746266893   22.22868365942283
H         3.14522425038930    5.05060125699018   22.61571653875368
C         0.42807113641884    1.72336559898768   22.68743956789790
C         4.48251015946087    3.32066294708796   23.72720146390452
C         0.13439245338822    2.00631146917206   21.25904427106950
C         5.30862177151345    1.47050846463620   25.11330495802806
H         4.24268394972769    1.52433830859749   25.39819047459346
C        -0.88661060395846    1.31565180153639   20.61548577172660
H        -1.44048433080200    0.56807446556821   21.16360465228638
C         0.83670844348282    2.99162322324094   20.57429783621354
H         1.60941481746324    3.55060546090235   21.08544693091043
C         4.59249584098541    6.63466224172791   22.65939301473921
H         4.55582381545230    6.72458723001829   23.74287258928210
H         3.91957057591706    7.37141940322586   22.22755010225981
H         5.60458370089488    6.85347818432394   22.33098429306207
C         6.14542943302935    1.72940898286334   26.36277537126231
H         7.20846586817403    1.67918971865046   26.14675647459274
H         5.90984884230374    0.98457889380839   27.11854218492717
H         5.92100757516313    2.71396987955265   26.76723468075354
C         4.14842050765023    5.05848563407011   20.71220928622908
H         5.06536112636973    5.42949066802332   20.26323357821383
H         3.31161749437024    5.60511025116115   20.28266202762617
H         4.05081343216784    4.00300912765633   20.46609959694413
C         1.23958131203066   -1.36720120059608   18.92359942218106
H         0.76583031054012   -2.03884971341967   18.22291577173684
C         2.00518530122663   -0.30940328124612   18.46019373634093
H         2.13152388368484   -0.15692466664374   17.39843594769255
C         0.54251010829462    3.26311134372167   19.25226218997565
H         1.08937544842417    4.03108303537385   18.72462082083466
C         5.56599397585466    0.10080174621094   24.49332866050318
H         4.98319263266688   -0.00703233418148   23.58031698977658
H         5.27074680378683   -0.67997857886217   25.18964823339807
H         6.61559851808681   -0.03152772712401   24.24700381869537
C        -1.16253477423911    1.57389505940608   19.28645326045219
H        -1.93915122643651    1.01876242415182   18.78167758931750
C        -0.44759149125773    2.54410826124518   18.60319949906129
H        -0.66626618005903    2.74480278106440   17.56480410505079

