49
CSD_code = VUJWII | q = 0 | S = 0 | Stoichiometry = C22H16N4NiO4S2 | MND = 6
Ni        2.14255615174198    6.79287159314773    3.80001562710881
S         0.20900996758028    8.00559454378664   -0.34412686026192
S         5.92465758832639    6.05916936541772    1.26591069454967
O         1.34255596176964    5.19297898911854    3.42326371501260
O         2.90373620084711    8.39790101455762    4.19101106692014
N         3.88909970689016    6.40743709378486    2.75201320981401
N         0.60772289509418    7.22722023606215    5.15809832788095
N         1.13809412826572    7.43920511607470    1.96073829243211
N         2.89139632137911    5.85920126083588    5.71702167314177
O         0.19190840983206    3.99338613643245    1.95928195165959
O         4.56661296762118    9.78046922111930    3.69547520444331
C         0.69862057335121    5.03639707565772    2.33588764908151
C         0.60225351613670    6.27834177725399    1.47143541433143
C         1.01853308487215    8.43400023446353    1.14707989881842
C         0.75338914748002    6.69292847961827    6.38157148195481
C        -0.23537515692241    6.82689889363990    7.38233403133426
C        -0.03073903563785    6.23366359576664    8.66140680854312
H        -0.80500813453474    6.35012445163017    9.40558352081220
C         1.09933004706634    5.54086304488319    8.93684040195436
H         1.24997624382017    5.08893156497152    9.90643875843261
C         2.12187355108546    5.38679868649939    7.95729144516997
C         1.95914447075997    5.96250930052252    6.67723402313693
C         3.99713364012503    8.70654556903894    3.61811423585899
C         4.45245945316635    5.50136419024763    2.02072415166001
C         4.57898702532843    7.59045552887630    2.77179147716546
C        -0.48222159743459    7.90654062237046    4.88178988503126
H        -0.55468289418725    8.32949284693307    3.88826958693416
C         0.05301633513792    6.39206026876219    0.23684416722314
H        -0.42243394040923    5.63055787323368   -0.34584535830637
C        -1.51635197435544    8.09400718551666    5.80524961083290
H        -2.39098859477944    8.65864459390199    5.52306937320348
C         5.70845867470566    7.59128327559757    2.02347233228191
H         6.40751820192057    8.38937703573304    1.88289107039604
C         3.99099092873804    5.19137041193948    5.97383066678881
H         4.71939709119839    5.13197140348414    5.17567999950535
C        -1.39528342789045    7.55022137507664    7.05979781022166
H        -2.17263241588515    7.67000938478064    7.80081238714089
C         3.94714474151075    4.12622965194891    1.81623223236608
H         3.22437092461675    3.88699511610374    2.59393485329637
H         4.76482730384422    3.40866846994358    1.82862443034364
H         3.44245028833748    4.04754971207923    0.85244223173168
C         3.30844638199842    4.67571579425639    8.20306905361204
H         3.46637481316271    4.21945897517707    9.16997774688700
C         1.50225991503126    9.80804009548840    1.40661092566570
H         1.78821359625426    9.89966621191032    2.45253409177255
H         0.73365365569802   10.54013184931781    1.16575058720554
H         2.37650499351657   10.02417651886199    0.79195768183358
C         4.24560012928599    4.57557078460560    7.20536869448872
H         5.16743814454039    4.03620357956449    7.35699973858720

