66
CSD_code = VUJWUU | q = 0 | S = 0 | Stoichiometry = C26H35ClN3Ta | MND = 5
Ta        8.63372962364799    6.86369126278304   13.23505090943950
Cl        9.84866582199496    5.21931303100143   12.16515706729122
N         7.35582187545724    7.09237092629681   11.68950683579940
N        10.23814107943826    8.06603204157699   13.24963280529178
N         7.65292305542025    8.13891192172517   14.39971653486853
C         7.86544281643838    5.23152448771825   14.65161888242380
C         6.67782257720106    4.52390462009218   14.42380354328207
C         6.14310321165175    3.67680788553462   15.39431124727104
H         5.22536199078177    3.14689484311620   15.18016765828895
C         6.77805191841374    3.50458073906063   16.60854188625486
H         6.35625452955592    2.85142258593722   17.35842392274875
C         7.96576620713102    4.16817887488016   16.84642102953003
H         8.49250232415143    4.03026757239471   17.78042279250570
C         8.50407770723225    5.01305456357282   15.87800133036124
C         5.93266677257900    4.61466297144554   13.14945849256366
C         4.60149351454644    5.02181838859215   13.13967356144445
H         4.13788545896513    5.34549986830412   14.06127977940289
C         3.87360689035589    5.02081210518084   11.96558539757221
H         2.84244923084247    5.34690716258212   11.97174871573323
C         4.44744307636384    4.59725275348718   10.77186277621509
C         5.77108444412341    4.17872296153249   10.78701478581334
H         6.23047466635917    3.83010642271759    9.87237506446007
C         6.50964915056517    4.19078159746404   11.95680356174931
H         7.53065699345436    3.83836698113241   11.95456531453021
C         3.64352072423781    4.59696217530659    9.50547760966465
H         4.22196404732761    4.19574621345837    8.67692349590185
H         3.33112351200922    5.61011017854481    9.25145527617614
H         2.74391321125722    3.99445960880356    9.62497352878115
C         9.80033542211020    5.65233114828667   16.19526715012968
C        10.94029651341521    5.33867520264450   15.45742197405261
H        10.86230706927100    4.66234667705788   14.61789347615991
C        12.17630789637232    5.83101283283656   15.83690094446497
H        13.05512140711411    5.55814127220365   15.26900103276054
C        12.30891468617082    6.65833968000411   16.94540672830453
C        11.16845811535263    6.97795359011164   17.67256586618623
H        11.25397084494340    7.61779284668699   18.54010007599530
C         9.93297682602738    6.47370291506870   17.31182131601787
H         9.05810009230817    6.71197885484587   17.90061437286852
C        13.64618112693930    7.21062752112679   17.33713575859473
H        13.80496135571418    8.17787085042169   16.85776668716672
H        14.44776373277128    6.54481281536816   17.02555104541614
H        13.70659660500924    7.35653116727108   18.41335499500722
C         6.10541945791790    7.81030311141313   11.76639456849734
H         6.21678854237101    8.83975185098122   11.39234213514806
H         5.76512932211449    7.83878034568208   12.79803262087426
H         5.33451845870606    7.31539813210276   11.16554926978065
C         7.74596352142733    6.94177894551465   10.30701574899377
H         6.92982211970797    6.50467058837429    9.71992060732077
H         8.60776515846803    6.28060960929806   10.22900374506931
H         7.99835046702656    7.91392673345564    9.85267290741823
C        10.97914545616748    8.57629216082753   14.37172904151636
H        11.96492776400761    8.09808201207288   14.45292277133053
H        10.42518093590781    8.38459612790130   15.29001803136341
H        11.14290978732081    9.65981515669810   14.27717918078598
C        10.91363137888626    8.35850648593633   12.01220744725700
H        11.16719841810356    9.42512849748629   11.93579924971399
H        10.28183975563868    8.09386370551051   11.16319429845415
H        11.85100929139466    7.78526954953321   11.93429756154047
C         7.82431252471599    9.56635870290735   14.23948498501229
H         6.86507434253990   10.04682317047043   14.00710872815395
H         8.51633501644053    9.76924791060428   13.42774356833062
H         8.20840633958664   10.02378980290237   15.16078984507221
C         6.71561024084676    7.93265293488243   15.48050358715009
H         7.12002685803133    8.31822452332224   16.42667553429571
H         6.50352765613157    6.87376880234860   15.59794203326486
H         5.77051906152582    8.45907902161309   15.29039730512265

