72
CSD_code = VUJXIJ | q = 0 | S = 0 | Stoichiometry = C28H40N3Ta | MND = 5
Ta        7.65692678010293    2.63146582627774    2.80010468186842
N         8.86278625294291    1.67992085817790    4.14850953223086
N         8.48585114677919    4.43465893768875    3.02591902116941
N         6.59432952023485    0.92906001841878    2.58759135766978
C         8.68133657868641    2.27521613182347    0.73881600572552
H         8.29946807396464    1.34865301269138    0.30630158560731
H         8.41342429022839    3.07987609204984    0.05052634756630
C        10.19291689695896    2.19366168175188    0.83702746831085
H        10.63861312698721    2.01041174096952   -0.14458801333625
H        10.49708253844070    1.38134826513686    1.49599141796990
H        10.60582740543739    3.12796612084692    1.21697488379102
C         5.71973435153564    3.85770364690910    2.80754741884569
C         5.20891125944999    4.40272530476406    1.62045925848728
C         4.19765446377270    5.36305089184438    1.62896824589602
H         3.83220916551926    5.75226508926635    0.68801455184435
C         3.65814237537925    5.80655066363512    2.81990661897134
H         2.86639892306422    6.54199036052409    2.82381803574982
C         4.15484542029564    5.30402537372605    4.00585488521824
H         3.74913840164955    5.64231954985683    4.94981980478096
C         5.17314082394161    4.35047920428450    4.00184909242610
C         5.72061756572730    4.02026053811320    0.28401667895847
C         5.61196644356045    2.72264641607312   -0.20393906332894
H         5.16603162181411    1.96114514747530    0.41349336422315
C         6.02837731501105    2.41275969762110   -1.48721966437087
H         5.92420088476781    1.39961438719467   -1.85058661268639
C         6.57284836345497    3.38168783503900   -2.31734595158606
C         6.67108382567764    4.68213563722428   -1.83413614076473
H         7.08361759480696    5.45394512638335   -2.46951438682451
C         6.24107287709302    4.99988249115794   -0.56085104463537
H         6.31255254747499    6.01990361888267   -0.20953378619092
C         7.04225517297295    3.05216822675840   -3.70236653635257
H         6.54058733838357    3.68226913022336   -4.43590721514453
H         6.84287716347447    2.01103842113332   -3.94361923634309
H         8.11403826117106    3.22893798669136   -3.79077782063780
C         5.65898575929831    3.90952363818899    5.32756178245397
C         5.67911372325020    2.56851879062235    5.69733212220594
H         5.34045894582219    1.82097326427339    4.99754633752284
C         6.05970052586632    2.19437837884468    6.97538587076321
H         6.03972487080363    1.14914903391668    7.25276338323538
C         6.45541660098344    3.13847098764762    7.91192527676369
C         6.43632801085438    4.47878648162411    7.54257682343332
H         6.73327609698201    5.23125849644769    8.26028389267273
C         6.03054502605893    4.85915917431625    6.27914598058866
H         6.00706729858387    5.90837456121014    6.01950266623450
C         6.86763924450086    2.73676633846796    9.29652350387690
H         7.76817687390278    3.26807765616315    9.59979347855156
H         7.05472308309192    1.66700981300231    9.35243544055551
H         6.08041228241350    2.98344557382809   10.00958815652672
C        10.22748652886716    2.08857564981347    4.36778799326926
H        10.37669573412997    2.48090651582964    5.38607236347717
H        10.50565427837741    2.85892959708561    3.65312088575467
H        10.91449612183730    1.23815208371876    4.24592483441182
C         8.46639766723257    0.75012784406654    5.17347963174782
H         9.14216887884054   -0.11679228903013    5.20155062464236
H         7.45722932016293    0.39782119900118    4.97359261572580
H         8.48511573492613    1.21446173330219    6.17216387419840
C         8.77531497662265    5.01560611852852    4.31405097896282
H         9.80113270302044    5.41038899548506    4.35318295787221
H         8.65249426639974    4.27243221627388    5.10014245119163
H         8.09608390955531    5.85485998168992    4.52320310963505
C         8.59412423036141    5.46354191364166    2.02213482684720
H         7.82679292530312    6.23931145321198    2.17247487021985
H         8.46244748677525    5.03910625507533    1.02892463269269
H         9.57374963602835    5.96070505845094    2.06499775249173
C         7.25145999029339   -0.32698966702653    2.29502733202147
H         6.90301076131037   -1.12670669712723    2.96310016449187
H         8.32854349492701   -0.22291557968395    2.40666458675992
H         7.03451820435082   -0.64708583204691    1.26483628047718
C         5.16985918262350    0.68674768148351    2.64208364302327
H         4.81334665848989    0.17269619114555    1.73738740629710
H         4.63323090462185    1.62928618053730    2.74719485586029
H         4.91051329175852    0.03459777737869    3.49091182744210

