75
CSD_code = VUJXOP | q = 0 | S = 0 | Stoichiometry = C29H42N3Ta | MND = 5
Ta        3.72973746681852    0.49486470394162    8.59521992527296
N         2.44914262324099   -0.46614315483996    9.78763566120012
N         4.95277897938334    1.68476246139778    7.51808156776674
N         5.32303846442678   -0.72874859809335    8.97738099144047
C         2.78142626955845   -0.35822162874629    6.65588307951526
H         1.72544544881996   -0.08099477234468    6.61931892933032
H         3.25958108749968    0.10221620145110    5.78894544437367
C         2.88990561183174   -1.86632344852210    6.53708084100127
H         3.94150953844249   -2.16574939823439    6.53478382881017
H         2.40020453968499   -2.34035846590568    7.39284332791428
C         2.23000647114218   -2.37796018409436    5.25397735368540
H         1.17598481891870   -2.10691837559473    5.23721738829838
H         2.30883344979497   -3.46113083829097    5.18264251716142
H         2.70859530613815   -1.93945264891309    4.38049277415717
C         2.70810066110355    2.35372335397483    9.47019778915729
C         1.58821614533880    2.92188208001608    8.84590009911177
C         0.80755360180700    3.89029451089249    9.47587915828298
H        -0.04566726705578    4.30163903403789    8.95307761854526
C         1.12181727102522    4.32965599204197   10.74651146335216
H         0.52362093687974    5.08987941764276   11.22811531248739
C         2.20460333723342    3.77239621864629   11.39680070157114
H         2.46307811935282    4.09784191391008   12.39545797978113
C         2.98159049543574    2.79597775968600   10.77316656352980
C         1.13843302433526    2.51037927136731    7.49526881881607
C         1.90675082027449    2.74071264501111    6.35836405577267
H         2.86755614431851    3.21748984911505    6.45774335278341
C         1.43027781721916    2.40262475625766    5.10475648248664
H         2.03750462688391    2.59825567055668    4.23156151515986
C         0.18019256489700    1.81855478831423    4.94559747739896
C        -0.59519202122427    1.60649430651889    6.07864707515075
H        -1.57754800749392    1.16547524534873    5.97695408134313
C        -0.13040676865390    1.95839577392834    7.33222938742956
H        -0.75526526381652    1.79946765191934    8.20031434270211
C        -0.31052823151523    1.41243553149439    3.58862979961035
H        -1.39768074888549    1.40255410470542    3.55384563144061
H         0.04481122832463    0.40882209144506    3.35010337580500
H         0.06131547834354    2.08994964117456    2.82290136352431
C         4.08921665508092    2.22874352669178   11.57180928882895
C         5.40152049215214    2.21580328057498   11.11011828930685
H         5.62682201531913    2.63348997519182   10.14125754405799
C         6.42725989881288    1.74404446842123   11.91289198723496
H         7.44513651845130    1.77391721733315   11.54848859937967
C         6.17398293177294    1.24810796057859   13.18340071863157
C         4.86233077203347    1.26214050029007   13.64570294387022
H         4.64578756900193    0.88820959498760   14.63703719856431
C         3.84078829878744    1.75808854277498   12.86128663535361
H         2.83086602846016    1.77484625074607   13.24697381120733
C         7.27646207800287    0.71583786857663   14.04916698821402
H         8.24258169764707    0.82880934385845   13.56327885891206
H         7.11621279608029   -0.34148579264187   14.26003117582560
H         7.30243022527092    1.24286439511756   15.00215109876786
C         1.02093923274319   -0.55267237004897    9.61052481687138
H         0.65226765027529   -1.56301857710920    9.83797157563390
H         0.75168052912868   -0.30651248901517    8.58535221724358
H         0.49963820696281    0.14588505242903   10.28401487648360
C         2.77778068688323   -0.91431919601886   11.11884735360777
H         2.22811199895406   -0.33330687574254   11.87323883874231
H         3.84352877897611   -0.79309794094238   11.30513073767613
H         2.50819364019823   -1.97096148062740   11.26237584778986
C         5.77957820779397    1.14041219937608    6.46215064337859
H         5.40933771250839    1.46128905703811    5.47701758765165
H         5.76904242296160    0.05314072969700    6.49983656967040
H         6.81882241090324    1.48653169323747    6.54711593979470
C         5.18939759051051    3.10986724940969    7.58475641002971
H         6.21456337636517    3.32629324644067    7.92485107439474
H         4.48566574400380    3.57444038318773    8.27496071687359
H         5.08451476275856    3.58339418086782    6.59787465029119
C         5.15238848178837   -2.13333463023774    9.25151995113025
H         5.76720548681960   -2.74134116713230    8.57160985518669
H         4.11142971849219   -2.41598803401160    9.11678619462280
H         5.45794139196666   -2.38834182234637   10.27857437680437
C         6.67533271647212   -0.33906259460377    9.28001527923163
H         6.90649233888852   -0.47372104675647   10.34852685269957
H         6.81821778899712    0.70791353770908    9.02285530923027
H         7.39640710795453   -0.94214969856746    8.70967011164058

