70
CSD_code = VUJYUW | q = 0 | S = 0 | Stoichiometry = C28H39N2Ta | MND = 5
Ta        0.83137363514295    2.58983654308565   -2.77665000726691
N        -0.52682142398389    2.57074424670226   -1.32080466841471
N         2.20248242689953    2.59800742685920   -4.22323734308781
C         1.51798510657037    0.55060422228392   -1.88860458443767
H         0.67428791753086    0.09929020429496   -1.35893820455577
H         1.77649472003343   -0.13354419535040   -2.69969604870888
C         2.69143017782235    0.67811074469453   -0.93391588357271
H         3.00817228092072   -0.30131390403735   -0.56503439922457
H         2.42024449445390    1.28143151338578   -0.06709936212359
H         3.54865491051661    1.13891093660231   -1.42556745955244
C         1.80061503318548    4.53550383307774   -1.97945703125305
H         1.84139435771935    5.24854970989859   -2.80791279854155
H         1.17441401480892    4.98659071320852   -1.20652026168702
C         3.20201520695325    4.32432692314819   -1.43672495288927
H         3.64834232547623    5.26953046740625   -1.11645770629017
H         3.84957861787177    3.89448454729450   -2.20106727975431
H         3.19376626594470    3.65667774472557   -0.57446201213779
C        -0.77575774934292    2.71055530706230   -4.38234032447157
C        -1.14632279833948    1.55109079282604   -5.06193142173681
C        -2.07467983451004    1.58428311022162   -6.09865878741014
H        -2.34274145447128    0.66441933665919   -6.60023534056251
C        -2.63999927652108    2.78489757575296   -6.48646149306226
H        -3.36001135601020    2.81364339803686   -7.29143003053891
C        -2.26914952017046    3.94868493623428   -5.84141523992858
H        -2.69731291340025    4.89663292819717   -6.13752756688807
C        -1.35105884027670    3.91504764105198   -4.79243067152998
C        -0.53115688553143    0.24151264112702   -4.72887367353892
C        -1.08993399711920   -0.60744470394245   -3.77931604641279
H        -1.97755887602127   -0.30071366672902   -3.24530850028499
C        -0.53388937535461   -1.84963255815494   -3.53577388788902
H        -0.98001546223677   -2.50063613919844   -2.79665874345306
C         0.58992969283459   -2.27953437436847   -4.23073753221410
C         1.13626894618578   -1.43636771172124   -5.18951862769020
H         2.00347001513193   -1.75851717136572   -5.74962188173224
C         0.58078787787881   -0.19526922248215   -5.44093093855632
H         0.99862013688141    0.44152239714831   -6.20733450726958
C         1.20208304846525   -3.61609580845327   -3.93709195406340
H         0.43194632631370   -4.36541670910006   -3.76512261019325
H         1.81547567904810   -3.55524138314154   -3.03730418877756
H         1.83574928833906   -3.94389899744641   -4.75774865567977
C        -1.00157863344072    5.20475338337402   -4.15472267191025
C        -0.45039346060209    6.23137424569107   -4.91625891469300
H        -0.25138826664141    6.06711814351727   -5.96666169303437
C        -0.14772499811127    7.45303599726219   -4.34286773962461
H         0.29212098601043    8.23253114679894   -4.94958473730836
C        -0.40810751975529    7.69341070301741   -3.00090051730513
C        -0.98618821956852    6.67717713872112   -2.24887099232794
H        -1.21421845711489    6.85610106920768   -1.20705444848562
C        -1.27516260281531    5.44847359325945   -2.81157927952303
H        -1.74538630182294    4.67862774915686   -2.22027489088974
C        -0.07515408574532    9.01022394540453   -2.36683469963744
H         0.75265087921233    8.89093411095608   -1.66762145189829
H        -0.92782616556396    9.39436951334540   -1.80924414523186
H         0.21191608353567    9.74349613707587   -3.11637305941374
C        -0.24235993501935    2.85303941184184    0.06547258671901
H        -0.90804934918931    3.63347893043514    0.46147996733222
H         0.78694577120774    3.18490820037591    0.18224825136146
H        -0.39007524746339    1.95482551031562    0.68344451502941
C        -1.88222236250794    2.08233520935364   -1.41761818689560
H        -2.58770061312296    2.73936486277422   -0.88890891592858
H        -1.96933709522434    1.08367400835905   -0.96269331856643
H        -2.18252170716082    2.01889863897976   -2.46279505506192
C         2.25374194741602    3.65445853827260   -5.20717770132012
H         2.12814429939420    3.24857631631923   -6.22202976832175
H         3.22315680186374    4.17333295461686   -5.18020052077103
H         1.46585431164969    4.38406803903259   -5.03101404319158
C         3.29743723338908    1.69517594070789   -4.47917658860845
H         3.28381011489195    1.32974647675167   -5.51514497852969
H         3.24896470254460    0.83898952387224   -3.81411269352459
H         4.26407915012635    2.20103726569923   -4.33090168105431

