64
CSD_code = VUJYOQ | q = 0 | S = 0 | Stoichiometry = C26H35N2Ta | MND = 5
Ta        3.93143354823947    5.99092674628049   13.31637733406265
N         5.14441283561831    5.84061577802969   11.72095219445507
C         5.39424187107988    7.29487122913903   14.47978808353725
H         6.40005158166439    7.26033653547922   14.06685122340584
H         5.45512348093890    6.99568270484998   15.52456860128604
H         5.06291028306343    8.33631202329152   14.45235131496349
C         3.93134254355164    3.70306225302925   13.31614706272418
C         4.76946986075838    2.97952149828530   14.16734472756064
C         4.75618374098214    1.58637484784901   14.17969672099328
H         5.40915258630835    1.05632500745762   14.85929773054189
C         3.93138986536646    0.88965710105164   13.31623392543665
H         3.93134888003070   -0.19064673301501   13.31633024464097
C         5.69706610440857    3.67435316634204   15.08839841980783
C         6.78929507495111    4.38258064573994   14.59510404418771
H         6.94332101395266    4.44192946540415   13.52707076385296
C         7.69372622547091    4.96678290588936   15.46316342805478
H         8.54690365247871    5.50100102789421   15.06823370204505
C         7.52602752214943    4.87752439257385   16.83936197972994
C         6.43624394714620    4.16770798848736   17.32755503147419
H         6.29372784569414    4.08130126068874   18.39605557222740
C         5.54054358045688    3.56224741189464   16.46617314092745
H         4.70842159313865    2.99712343044458   16.86147599361122
C         8.48880273470368    5.54656848202647   17.77380295016839
H         9.49030194063030    5.56789120864820   17.34969337883294
H         8.52203108973107    5.03387275323138   18.73249942194325
H         8.17844194072353    6.57692424799506   17.95291162415339
C         5.66504511214376    4.73097859754869   10.95833034571618
H         5.27171738160904    4.73865579490830    9.93116174618049
H         5.38397510406405    3.79134501541058   11.43010148810635
H         6.76251513658629    4.77356165926327   10.88608048346306
C         5.60223955030675    7.06532620411682   11.09864695659811
H         6.70101907512656    7.09205728007602   11.04748774342021
H         5.26732122899843    7.94092325810991   11.65350014494882
H         5.22457998903483    7.14414310815150   10.06830187353904
C         3.09324520526654    2.97944925214686   12.46497712768883
C         3.10658061914857    1.58630111389094   12.45272920752661
H         2.45360505465140    1.05618339978234   11.77318905720576
C         2.16574617596079    3.67418881936737   11.54377295257917
C         1.07374463206803    4.38288881381897   12.03687576330613
H         0.91983907203489    4.44271640278645   13.10491808945435
C         0.16941815734506    4.96703301265337   11.16865416328463
H        -0.68350111076063    5.50177484353778   11.56345997793968
C         0.33703961157302    4.87730605845948    9.79249267594248
C         1.42660378630466    4.16703079173884    9.30449247688910
H         1.56894471876139    4.08008463449493    8.23598909502895
C         2.32216220226890    3.56158527254176   10.16603246745185
H         3.15404583124158    2.99600243995702    9.77086561008540
C        -0.62557517989701    5.54633733626756    8.85788673398044
H        -1.62702801928226    5.56819920614756    9.28209557209296
H        -0.65909207201203    5.03323870871652    7.89941397958998
H        -0.31484634710551    6.57650616223467    8.67831053852072
N         2.71855926200905    5.84035089261390   14.91184410579473
C         2.46867538360050    7.29515450729380   12.15310106171909
H         1.46280696882773    7.26061835844787   12.56588845428632
H         2.40787232784823    6.99623647222419   11.10824544393931
H         2.80001496349470    8.33658280681830   12.18079062096576
C         2.19735942886980    4.73062691187279   15.67391895204050
H         2.58986316201043    4.73828644919091   16.70139191397883
H         2.47891006389108    3.79106444671657   15.20229583647687
H         1.09982004782142    4.77310941145219   15.74529418357298
C         2.26074026144363    7.06498123890861   15.53433281716000
H         1.16194678811848    7.09190765103615   15.58526634186686
H         2.59594240197692    7.94064497539386   14.97975727352548
H         2.63822868141162    7.14347131290821   16.56476810951219

