70
CSD_code = VUJYAC | q = 0 | S = 0 | Stoichiometry = C26H39BN3Ta | MND = 6
Ta       -0.14524943473765    5.95228314779072    3.65788041394033
B        -2.72305713253796    4.08749168573876    2.94732489161357
H        -3.19090620060024    3.74376102862708    3.98067472463025
H        -1.78484901922417    5.06553777233956    3.31697722923964
H        -2.09541493615421    3.24108107044857    2.39085553514291
H        -3.46733703301330    4.67798638277795    2.23808966984303
N         0.23970741273691    6.47567563901309    1.75750069906562
N         0.49221826071691    4.11871661577768    4.08203655179440
N         1.36584010052617    7.00346980074916    4.45893583609823
C        -1.58493701741911    7.44819452351050    4.62209401157111
C        -2.10702441344567    8.56799440416709    3.96295507081899
C        -2.93505587498013    9.47750085906436    4.61932094616066
H        -3.30626368278586   10.33631748978303    4.07729904366799
C        -3.30463194001816    9.27125886521910    5.93392563475768
H        -3.95569814965473    9.97211834961146    6.43553485586285
C        -2.84504919990494    8.14743533742500    6.59241243900697
H        -3.13481800152180    7.95539955762316    7.61630132430817
C        -1.98815043523432    7.25836529097663    5.94792220268400
C        -1.85139521735628    8.83000670507429    2.52854674132554
C        -2.35702765414072    7.96557228144191    1.56121001238528
H        -2.88325817818125    7.07260314642098    1.86892587296610
C        -2.22797396951179    8.27066263718652    0.21832472804185
H        -2.65135698532439    7.60569571099193   -0.52184845464092
C        -1.57389384263144    9.42481542492636   -0.19630370062713
C        -1.06447747016989   10.28069608330261    0.77226158854313
H        -0.55607064011944   11.18548700363989    0.46863499538264
C        -1.21222698088571    9.99510610100082    2.11696841864991
H        -0.82865021473105   10.68396050173426    2.85754492221245
C        -1.44423527850128    9.75677396306964   -1.65318410902582
H        -1.50557510238467    8.85916982798492   -2.26458435656210
H        -0.49977919789475   10.25866202464303   -1.85515397389764
H        -2.24986954245870   10.42636988771647   -1.95670359557571
C        -1.53107981584588    6.08477913969515    6.72954235519623
C        -2.44941182719950    5.11587401775821    7.12934757219223
H        -3.47551400038743    5.19426394954526    6.80169258406453
C        -2.05437790543719    4.06246059737619    7.93135049795044
H        -2.77654132955478    3.31574663610051    8.22946362620369
C        -0.73807328287122    3.94992542843669    8.36861488477689
C         0.17285175580533    4.92215469791474    7.97930598772711
H         1.19605397373592    4.86161301394273    8.32445038614972
C        -0.21424498399600    5.97638511881957    7.16858385222618
H         0.49138136015411    6.75601805221252    6.92166498050889
C        -0.32438682973176    2.79514283047677    9.22972552387437
H        -0.29617582994510    1.87932101377052    8.63789586905494
H        -1.03680011631371    2.64458887977098   10.03930671529999
H         0.66254651528966    2.95920794280938    9.65664074804689
C         1.18928382047087    7.45109031443562    1.27931621813959
H         2.12590273528550    6.96773210352645    0.95749232767690
H         1.41227986719277    8.16732648849754    2.06664604227897
H         0.78732963664961    8.00285095355506    0.42181448923720
C        -0.15096553989387    5.58904543017169    0.68520231374855
H        -0.56527080102984    6.15596943620696   -0.15615722933598
H        -0.91110903658718    4.89114415055640    1.03588824761616
H         0.71410819748433    5.02055106448616    0.30891967174549
C        -0.03866434245921    3.16711112383472    5.02012042903917
H        -0.46540424006963    2.30311057241967    4.49446870958975
H        -0.83180185568170    3.63219688641972    5.60191357360081
H         0.73872318737010    2.80014292121902    5.70533430655676
C         1.39274334770864    3.47458470772762    3.15958284991779
H         2.17015995651097    2.90867920832389    3.69189151575935
H         1.88192563893609    4.21486639110987    2.52429803604300
H         0.84814347946805    2.76391993273763    2.52057783887366
C         2.59109064897183    6.40001539314379    4.93114042773593
H         3.44330550144536    6.70824062555266    4.30825161055452
H         2.51043140791743    5.31574139311391    4.90234192621948
H         2.81647595176658    6.70344674251002    5.96288671280355
C         1.42279619065809    8.43013943537020    4.68687872342894
H         1.48654860584026    8.66031192287852    5.76075100876013
H         0.53209065500155    8.91007435674490    4.28587770637901
H         2.30931627490027    8.87095800706154    4.21059679097747

