58
CSD_code = VUJYIK | q = 0 | S = 0 | Stoichiometry = C24H29Cl2N2Ta | MND = 5
Ta       10.40270523091241   -9.98262264530295   -5.06763832893521
Cl       11.33651083860440  -12.01290202691395   -4.51075374092418
Cl        8.49207541995648  -11.04169671842963   -5.72965825574514
N        11.90183226408565   -9.01153365057492   -4.25652010228023
N        10.67416338285077   -9.07727857787306   -6.81978251114126
C         9.06320884623357   -8.70543584955337   -3.73618868341655
C         8.86237590439851   -9.18159560272386   -2.43724854446529
C         8.17556449028148   -8.43755953902047   -1.48428983493501
H         8.04260946683698   -8.83995023774949   -0.49015094574042
C         7.66943174380781   -7.19372740064645   -1.81497587473924
H         7.14002348531122   -6.60778743202652   -1.07820122390408
C         7.83538512271849   -6.71234058415452   -3.09885839872708
H         7.42266891986083   -5.75307541562066   -3.37723692895205
C         8.51715043226712   -7.46015752653928   -4.05974121936432
C         9.38832427892327  -10.51926519905604   -2.06370745194249
C         8.68534385296907  -11.66897644843153   -2.41706302665083
H         7.75558151615842  -11.57659160919903   -2.96170958353425
C         9.16411267051532  -12.91693463435019   -2.06410546504330
H         8.61281778114209  -13.80082031483697   -2.35227425432164
C        10.35133284252247  -13.05155182319955   -1.35538085533939
C        11.03693645365649  -11.90141356426033   -0.98455686230786
H        11.95745624099949  -11.98988713199785   -0.42411998954958
C        10.56158434755839  -10.64921844738381   -1.32677300729140
H        11.09624484864375   -9.76135532313737   -1.01921514299122
C        10.89556623268376  -14.40679066777544   -1.02252445384322
H        11.46046183271894  -14.38368308598800   -0.09310897791015
H        11.56621113883781  -14.73572986538997   -1.81714702658200
H        10.09504781378659  -15.13759509356423   -0.93428350595567
C         8.60972067491771   -6.89517061306136   -5.42029228622362
C         9.14780690682941   -5.62848044295512   -5.62813986286476
H         9.56272650290882   -5.08319536926594   -4.79223737776007
C         9.16282047705697   -5.06956084093046   -6.89126960396835
H         9.59134612837963   -4.08821071921359   -7.04032366131598
C         8.62259262471339   -5.74939086058370   -7.97770184608593
C         8.07565018029533   -7.00801469332242   -7.76430903402590
H         7.63446137904772   -7.54406628109508   -8.59312176198727
C         8.07605996965368   -7.58232761396804   -6.50564307726903
H         7.63113377650906   -8.55397661803729   -6.35168018800068
C         8.63321253865490   -5.12398204217669   -9.34059981078418
H         9.65306366207084   -4.89332831574328   -9.64767238235078
H         8.07158884595858   -4.19058096356009   -9.33401253743523
H         8.18984921935091   -5.78818361033650  -10.07819910283906
C        12.01545022563382   -7.92347506141411   -3.31344204377900
H        12.53222791278772   -8.24936482716840   -2.40213446028352
H        11.02484255527757   -7.56044610923264   -3.04999166748525
H        12.59156203711854   -7.09106733582770   -3.73841019776463
C        13.23179680586037   -9.50642377688211   -4.54725857692672
H        13.92852257570568   -8.68028685373954   -4.72748282362514
H        13.21638175644613  -10.14716101587022   -5.42721409014637
H        13.60643869817271  -10.09556531469473   -3.70072791040441
C        11.48850152735373   -7.90513746304026   -7.04785477737657
H        12.45125362883689   -8.17559018963457   -7.50394003875621
H        11.66381882885850   -7.39898115105932   -6.10302461554690
H        10.97949709260992   -7.20721651972686   -7.71952634032775
C        10.34898655214284   -9.68863561984921   -8.09048857077198
H         9.88603722803984   -8.95748864666575   -8.76175744495032
H         9.65057880053140  -10.51113562419865   -7.94526187892934
H        11.25294348904744  -10.07367909105635   -8.58406783349037

