73
CSD_code = VUJYAA | q = 0 | S = 0 | Stoichiometry = C38H30N2P2Pt | MND = 4
Pt        0.00192992609621    0.00066528904772    0.00116320382879
P        -1.29874863933355    0.56069494641641    1.78350225471206
N         0.16965226372776    2.98870500319252   -0.94463073913849
C         0.10542878656669    1.89674541039402   -0.58778608310663
C        -2.40475574210841   -0.75521747078280    2.36895529077976
C        -3.16701929010749   -1.37853821450638    1.38349654753447
C        -4.02691511903710   -2.40594168790087    1.71464928746844
C        -4.11982454626815   -2.82474910758367    3.03306499224378
C        -3.35256164938811   -2.21699603562597    4.01194013324584
C        -2.49329927551763   -1.18145130464057    3.68580484614411
C        -2.36564317005954    2.03574513421603    1.79217768503052
C        -1.74354957083314    3.28160009361911    1.75174956918866
C        -2.50433064565473    4.43369986120221    1.72481841752254
C        -3.88820120145743    4.35222979036673    1.73351965313919
C        -4.50935864582080    3.11532314065260    1.76805377425793
C        -3.75337229367920    1.95625752248451    1.79431622127547
C        -0.14657934213326    0.91495628011890    3.13691147662468
C         1.19017082398011    0.58029693398395    2.94262687614038
C         2.12127783616419    0.83666642050040    3.93198107797459
C         1.71943396509812    1.42931107642608    5.11823125350940
C         0.39055460683545    1.77386799515606    5.31176993926996
C        -0.54397625493956    1.52343425184257    4.32376553600093
H        -3.06127416052469   -1.05426179885098    0.35224290262166
H        -4.61431097014421   -2.88991594701494    0.94835059428108
H        -4.78310720720145   -3.63590436907587    3.29461151725685
H        -3.41656544934282   -2.55563803526220    5.03576239175914
H        -1.88413789209166   -0.71964761885338    4.44966261347076
H        -0.66398215215367    3.33935464038620    1.73185227012030
H        -2.01748657834722    5.39667362039390    1.69082163003787
H        -4.48261172774569    5.25366687627289    1.70985711716155
H        -5.58782945525232    3.05034889668259    1.77274869984469
H        -4.24160143684402    0.99160159494561    1.82113794797261
H         1.49021243963554    0.11339368271836    2.00007967977817
H         3.15878163024439    0.57770863955955    3.78040723046848
H         2.44467490292461    1.63018175503366    5.89288647293864
H         0.08367770445616    2.24344923447133    6.23501091658554
H        -1.57870869107503    1.80816166816220    4.46192887899090
P         1.29831685677377   -0.56085692538302   -1.78351653791688
C         2.40423074804627    0.75535635072781   -2.36865813978355
C         3.16671615334637    1.37857144934125   -1.38327052748274
C         4.02674611275650    2.40587865701481   -1.71449850244941
C         4.11965099882901    2.82469089695158   -3.03290911349303
C         3.35228971477086    2.21699771012496   -4.01173703257323
C         2.49286629543322    1.18158634386995   -3.68553642993595
H         1.88380855714170    0.71971957669007   -4.44943284767654
H         3.41630475599970    2.55563133974043   -5.03556545513285
H         4.78294370745717    3.63584074507422   -3.29447848050316
H         4.61417237919376    2.88987891057516   -0.94823505142484
H         3.06105088244135    1.05431104520381   -0.35203085959703
C         2.36555234270066   -2.03567586832652   -1.79216967318137
C         1.74361943941725   -3.28159925361994   -1.75173849804756
C         2.50452628212158   -4.43360470918102   -1.72466715748110
C         3.88838800444609   -4.35199681988752   -1.73330524427272
C         4.50940960405571   -3.11502677631152   -1.76795302292377
C         3.75329152879669   -1.95604102634378   -1.79426407100747
H         4.24144530549087   -0.99134583900738   -1.82111929052251
H         5.58787709078202   -3.04994460898942   -1.77263716232486
H         4.48289023820581   -5.25337017812552   -1.70947637013637
H         2.01776432204707   -5.39661261371941   -1.69055759564460
H         0.66406477772647   -3.33949619931867   -1.73191567720286
C         0.14652826418326   -0.91498332801298   -3.13723009136230
C        -1.19026188883371   -0.58060716139358   -2.94284018828825
C        -2.12136294166612   -0.83715547636451   -3.93211916361087
C        -1.71944441356406   -1.42973604699790   -5.11837526836156
C        -0.39051354169836   -1.77407925622047   -5.31197400486965
C         0.54402120403698   -1.52340045380898   -4.32405434334029
H         1.57878968073324   -1.80803380083220   -4.46213658289242
H        -0.08359102456293   -2.24367937994498   -6.23518120474389
H        -2.44468371105174   -1.63072979308885   -5.89298850794021
H        -3.15889595969949   -0.57836074447785   -3.78047880147065
H        -1.49034212001655   -0.11378607238618   -2.00018683073638
C        -0.10280693264725   -1.89599283837494    0.58795907750881
N        -0.17140649189025   -2.98882602326511    0.94183657423804

