35
CSD_code = VUKLUI | q = -1 | S = 0 | Stoichiometry = C13H11N3O6ReS(1-) | MND = 5
Re        3.70747283404057    8.40205559976906   -4.15463984152550
S         5.63234729343009    7.60464902252682   -3.06046122237151
N         2.90311192406418    6.76565924173449   -3.36081900951643
N         2.35811578787696    7.90741888841954   -5.51938800297616
N         4.62121217311244    8.89687881537192   -5.89374262929883
O         3.40734669896070    9.79110845972076   -3.27291992583456
O         2.96788717243013    4.93930420567435   -1.99749587852801
O         0.56915025158899    6.59455356742554   -6.06796831582314
O         4.36279439922551    9.16451422878108   -8.14824583164616
O         6.71798742055553    5.47697966560448   -6.85285164639541
O         4.91186393809007    6.32597803832759   -5.87846147631655
C         4.78761451208257    6.49095751615761   -1.88849637421317
C         3.45772973453483    5.97826135884893   -2.42268162798517
C         1.62038708440723    6.35048245461781   -3.89784202241034
C         1.43781839876101    6.96223751110645   -5.28825101380073
C         2.44483515241525    8.53552418896408   -6.81412520666293
C         3.90884900785234    8.90863750633719   -7.04454076462156
C         6.01863465634956    8.94737774154112   -6.01249950364477
C         6.68912015463201   10.15921110165356   -5.87638235351553
C         8.06190104583125   10.22339215388304   -6.00773079749069
C         8.79236374513892    9.07795010738497   -6.29011662491655
C         8.14253411724045    7.86905800493645   -6.42309385575631
C         6.75852595817867    7.78322471355184   -6.27949976821079
C         6.15581200942742    6.43909849018460   -6.38385268373680
H         4.60392828348606    7.05223242372757   -0.96997159723184
H         5.44982829461867    5.65370900900415   -1.66937884342285
H         1.56354851070746    5.25719408392869   -3.94900166827894
H         0.80250000807263    6.69648269878004   -3.25215090402484
H         2.09799949638544    7.86120554786716   -7.60500948938391
H         1.83430938826205    9.44817374985186   -6.84960764807561
H         6.10652923809341   11.04177905223161   -5.65964764506516
H         8.56769186733265   11.17191900559326   -5.89485861322964
H         9.86582110772300    9.13102531175021   -6.39980705650931
H         8.68808308602671    6.96082726308949   -6.63236449241833
H         4.60944524906588    5.40493927165242   -5.94679566516148

