84
CSD_code = VUKPUO | q = 0 | S = 0 | Stoichiometry = C39H33CuN5O4PS | MND = 4
Cu        2.74190407969700    3.89505465338007    5.10854976907459
N         6.59650807360092   -1.95353013741653    6.76387615313194
O         6.01516610279315   -1.73465636468448    7.81087272282563
O         6.79093757123676   -3.07176456379611    6.32048445399910
N         2.47102343159078    2.96015476285749    6.78784102069960
O         0.81743833683082   10.05921914609424    3.56065931349386
O         0.50671484595245   11.27469172641346    1.82272480453543
N         0.96175688712866    4.86548976228956    5.69897407484452
N         0.80092269055609   10.22424124532841    2.35775487820389
C         7.09568608090135   -0.85571991509592    5.99094988890401
C         8.22880803364427   -1.12598554248050    5.22783262338021
H         8.65920172304433   -2.11493724602056    5.28323346211570
C         8.79220891324162   -0.15079550737373    4.43468090411741
H         9.67912868808238   -0.36301108385539    3.85884086673769
C         8.20424935451369    1.10867697219359    4.39115398359323
H         8.63747163318871    1.88346358850778    3.77681949329247
C         7.07130168511830    1.37549705118466    5.12545769713278
H         6.63353226444398    2.35852781250350    5.06940132714734
C         6.47167690859864    0.41191545962183    5.95373022393875
C         5.24061566211935    0.68447739605776    6.64673620938381
H         4.86277269347105   -0.09327010349597    7.29479927407697
C         4.49272887349950    1.80372937054124    6.51149354667131
H         4.79174213913402    2.62883687038352    5.87696769405147
C         3.21615658640191    1.96201851043742    7.11241506167351
H         2.87701045305675    1.20674371320997    7.82367468438245
C         1.15575800154077    3.12999739680974    7.34042764159626
H         1.13129993313718    2.89511165410180    8.41045292569998
H         0.45796050189634    2.45635480234910    6.82418971583232
C         0.72312155549527    4.57909810689822    7.08572495045916
H        -0.32775655043244    4.73001077014854    7.35971300108671
H         1.33796313706503    5.24533863815376    7.70254169954798
C         0.51608630451214    5.92313042790127    5.13777956567973
H        -0.09060108162969    6.65236221702156    5.68220075465799
C         0.84942312649358    6.21527994326094    3.78027442090464
H         1.47099789291835    5.47754507881986    3.29101681174411
C         0.54292359731197    7.38494509113322    3.18829069213624
H        -0.03136657356919    8.10977440121743    3.74870474189211
C         1.02649382027319    7.77914127350738    1.88265971034292
C         1.41068299950446    6.81479150476750    0.94279424191794
H         1.31465286535731    5.77035718409998    1.19447084900379
C         1.90316331305751    7.16345331030716   -0.29734700338284
H         2.20932348328135    6.38811314954818   -0.98229227090145
C         2.01920933465096    8.49796520672929   -0.65791386004250
H         2.41561408194183    8.77398319972549   -1.62228419109662
C         1.63092365693756    9.47420644842135    0.23588944166439
H         1.71501407491281   10.52199836568902   -0.01103090061659
C         1.14449206479618    9.12749406703702    1.49188785723483
P         2.43264576711760    2.27818284404964    3.43553989333331
C         3.29552428307972    0.68285384810025    3.61660452220049
C         2.77820753261475   -0.19219460430223    4.57166927568498
H         1.88257237584415    0.08525842870619    5.11323655372331
C         3.39258594094627   -1.40473052494985    4.81343251606544
H         2.98290439758785   -2.08179374897881    5.54836470532532
C         4.53721868213078   -1.75316666429459    4.11265318363448
H         5.01893033159185   -2.70128061897566    4.29964187560552
C         5.06377468418737   -0.88041798037370    3.17563435191499
H         5.95846067330532   -1.14813403668237    2.63286649049356
C         4.45147449265021    0.33578447246698    2.92780259072673
H         4.86523341935681    1.00468626135804    2.18742867725929
C         2.98853135922528    2.90558836748158    1.82378681433738
C         4.29451294045437    3.38967169915181    1.75418539793703
H         4.92124956463675    3.35056215886379    2.63518596450180
C         4.76952796342283    3.94309349257429    0.58119620051347
H         5.77873421049980    4.32272587166875    0.53466811341366
C         3.94187142833367    4.03006106283641   -0.52667997066398
H         4.31300432278405    4.46640546315700   -1.44224856941515
C         2.63763261960383    3.56944809781245   -0.45576217901794
H         1.98746177853487    3.64347968542798   -1.31616108596781
C         2.15442180390647    3.01460556162461    0.71655159701809
H         1.13138735020657    2.66818969956623    0.76883897968585
C         0.73821243514013    1.69640798815464    3.09188622627267
C         0.48438185934617    0.54695575286607    2.34763001882089
H         1.30845002344745   -0.03172228478907    1.95401255162749
C        -0.82022768245474    0.15311208254585    2.11628125483967
H        -1.01668699192360   -0.73786217439434    1.53814991896386
C        -1.87546955312977    0.89764165405461    2.62164032890001
H        -2.89226324361906    0.58376160794614    2.43804921372176
C        -1.62628609088803    2.04091500427742    3.36248498002014
H        -2.44815385349298    2.62007995826156    3.75769215879754
C        -0.32211589461569    2.43922574754034    3.59951811366008
H        -0.10836948215047    3.32517127890148    4.18319423167228
N         3.92864231801526    5.15569308059365    4.41082909127807
C         4.09547579447117    5.93921209189030    3.54775195292003
S         4.38729918948466    6.98040956113952    2.39386913326940

