53
CSD_code = VUKPEX | q = 0 | S = 0 | Stoichiometry = C20H24N2NiS6 | MND = 4
Ni        4.14478045707258   15.65771523115756    4.45702413115728
S         4.10928282330633   17.41773809668801    3.25910064831190
C         3.32779794308108   18.64203706547566    4.20315412182907
C         3.32410404744530   19.97813858941132    3.63508794229296
C         3.46099742178163   21.13464146232333    4.35242304251580
S         3.45323212880782   22.52850872217467    3.35417118036044
C         3.27606067919073   21.55507491064196    1.94283658392176
C         3.23086483862644   20.23617535720923    2.23678392176382
S         3.10784371568552   16.68809779380593    6.00757984051042
C         2.82142521112637   18.29389840164331    5.42653615178704
C         2.00881180719479   19.14553373859772    6.27796224912740
C         2.06798604606026   19.12543446115297    7.64278735134936
S         0.95104621316387   20.20699169238945    8.36548499216625
C         0.36968436562455   20.68631099434018    6.81566996299649
C         1.01256813036963   20.05257451200332    5.80899983187118
S         4.24058824898110   13.87961427591126    5.70244941063016
C         5.05487164407744   12.70804991732504    4.77788217465702
N         5.38402533587846   11.50466532572306    5.31810527748548
C         6.27332610923420   10.66213939256105    4.55572839164249
C         5.06713328566448   11.15322290980165    6.69092446416414
C         6.33378965176137   11.03388582251595    7.53716163843640
C         4.22648184311208    9.87743401300488    6.74368504596762
S         5.13905117144640   14.58521609691221    2.85033650296045
C         5.38464602634269   13.00536822208226    3.42794623703187
N         5.89081865539530   12.04050138398774    2.61443361281988
C         5.83381218861030   10.68143120888177    3.09591019603431
C         6.23962544568446   12.29472824802203    1.22795054356194
C         7.69458819446662   11.91319278682716    0.95540359102797
C         5.27838328910341   11.58267131621601    0.27709539367821
H         3.58126136759921   21.24520773596813    5.41119203287127
H         3.12688240157992   19.45382108529426    1.50722945180671
H         2.71761538659356   18.53559825085723    8.25777088740418
H        -0.42003194761510   21.40795041510822    6.75110723018736
H         0.78528677279225   20.19468379989487    4.76834205032157
H         7.30754924973550   11.02701239353254    4.62648651176798
H         6.23077339288960    9.64644682352511    4.94721682293691
H         4.46426339675165   11.97698991946002    7.08171218144943
H         6.06173860422318   10.88472949151956    8.57801220303582
H         6.92028966223464   11.94621793288741    7.46306204488988
H         6.94698811453241   10.19397819206036    7.21866212438862
H         3.86573159613941    9.72623680343513    7.75682546537826
H         3.36814148615021    9.96683753690104    6.08269190084996
H         4.80274962324517    9.00082179831794    6.45625529493292
H         6.49615262275061   10.05859951991998    2.49599020087434
H         4.81082328223630   10.28672681783313    3.02136930934156
H         6.13598343806323   13.37332081885341    1.08419681542596
H         7.97832060950103   12.26324937734844   -0.03275729224068
H         8.34840892605320   12.38107103212150    1.68702349918781
H         7.84377305214747   10.83623072040797    0.98707970727838
H         5.49130241127607   11.88125222152852   -0.74521450667530
H         4.25223537590159   11.85721542229475    0.50831468028313
H         5.37862274672099   10.50196746305823    0.34759945976072
H         3.21731151022355   22.02824247908659    0.98311749243375

