82
CSD_code = VUKZIK | q = 0 | S = 0 | Stoichiometry = C37H36N6P2Pt | MND = 4
Pt        1.64129166683285    0.01275658665948    4.11429682772018
C         0.18564536559660    1.41983940198131    3.65182247103026
C         3.88731538030508   -0.22955163778760    1.82946505811796
N         2.62165285410012   -0.78410812004955    1.44733357971662
N         2.38571326685644   -1.30684992361272    0.23061569596008
C         1.10156170772151   -1.60316209203072    0.23462503634396
C         0.49987430799606   -1.24818441199493    1.44788586575151
C         1.50312802374862   -0.69958655697068    2.22994104766463
N         4.99166691531733   -0.67758080744952    1.04667696895661
N         6.14042360887675   -0.93643213515895    1.67876287031292
C         6.99406181660226   -1.28940308943681    0.74296660126138
C         6.39342611435131   -1.25818122881102   -0.52429653864474
C         5.10383279180930   -0.85194644419307   -0.28948973512549
N         3.78406185044241    1.21857335308342    1.85926943075565
N         3.34762348586080    1.78319693580338    2.98394274203094
C         3.23660763682436    3.07273900303662    2.72752823710529
C         3.60382909488263    3.34612606016612    1.40400411342420
C         3.94068748205373    2.12356910487298    0.87340009201638
P         1.70816594436744    0.56807363523291    6.35937129485923
C         2.92645001205776    1.73245840651621    7.05005831519625
C         2.90815537444754    2.10481238319927    8.39137270470564
C         3.88739638237813    2.94577077279242    8.88454958726961
C         4.89068648840391    3.41337186888269    8.04878062160903
C         4.91389661100748    3.03999503064270    6.71594383492757
C         3.93360146104088    2.19972590865037    6.21582429113521
C         0.16345771218616    1.06489341281850    7.17705180671753
C        -0.82464136561352    0.13148703400413    7.47544053511266
C        -2.03832025853998    0.54326339512141    7.99475804781991
C        -2.28718058444648    1.89000229720788    8.20133204953446
C        -1.32147014403478    2.82761799431939    7.87324677593930
C        -0.10615571662290    2.41942420746346    7.35710562609618
C         2.22255413236898   -0.95435843846557    7.30300859427960
C         3.39031044431737   -1.61013303199678    6.57505373602862
P         2.86052692542572   -1.87048113064249    4.81672471204782
C         1.61329020915693   -3.17126579942350    5.08775218000274
C         0.27067857746042   -2.83528983727878    4.95677736320633
C        -0.70951556925722   -3.77703412420907    5.21298427511385
C        -0.35166699772451   -5.05887269260926    5.59722844521518
C         0.98653686996471   -5.39931039346949    5.72262629696647
C         1.96948213625464   -4.46008340346028    5.47148788714177
C         4.20165651016470   -2.82079635687116    4.04258021969232
C         3.87336105782266   -3.50221999126535    2.87042280634757
C         4.85099637641007   -4.15614625506007    2.14869622244192
C         6.16611725999359   -4.13040621195199    2.58631848510080
C         6.49911187513075   -3.44480308299940    3.74153355119472
C         5.52494076342250   -2.78084185403765    4.46520286346387
H        -0.77364198364562    1.08992343227928    4.07050780674938
H         0.03851594547032    1.59855543873635    2.58507308604032
H         0.43080457495527    2.37875377256745    4.11918971827179
H         4.10765176730950   -0.51202079136394    2.87647939956622
H         0.65579685853596   -2.05774357647757   -0.62964418008940
H        -0.53364747749406   -1.36954704002030    1.70860606693461
H         8.00043314442255   -1.55215680067219    1.00158782205698
H         6.84186071216015   -1.49632262235786   -1.46668558899097
H         4.26220703140303   -0.72007214744968   -0.93615132481823
H         2.90809621291991    3.75536450313985    3.48613910045435
H         3.61841674518767    4.29641160094001    0.91133286365595
H         4.27714321768906    1.84176837242367   -0.10340668324514
H         2.12170244339175    1.74466501361258    9.04132757080930
H         3.87072922743734    3.23913946941443    9.92427077308532
H         5.65251040865211    4.07124298082086    8.44091951027647
H         5.69447746239603    3.40418545412564    6.06420784278796
H         3.92734443755244    1.90609422691860    5.17434134460251
H        -0.65260207896342   -0.92021441558829    7.29365178885402
H        -2.79628122947463   -0.18906845431072    8.23254708649357
H        -3.23623460819913    2.20898864348517    8.60592357912680
H        -1.51907275245968    3.87994667794443    8.01572677241201
H         0.64497593283738    3.15077323728445    7.09067092175501
H         2.49092350933163   -0.68144140135098    8.32841488139039
H         1.37982289193401   -1.65095284370777    7.33670315370223
H         4.25579968101205   -0.93880328187996    6.57953983780430
H         3.67151826427975   -2.56093079691945    7.03969607508197
H         0.01082278397140   -1.82631584645183    4.63754233954611
H        -1.75194832180266   -3.51304693161299    5.10955529543429
H        -1.11498189974394   -5.79713294072960    5.79519415035719
H         1.26306230065404   -6.40139680036621    6.01722262377979
H         3.01456476511202   -4.72569559556123    5.56170847564667
H         2.84416801606038   -3.50909329867654    2.53337106856381
H         4.59039287831101   -4.67751639052537    1.23962646063294
H         6.93251264702865   -4.63771098289016    2.01949036996285
H         7.52539708742786   -3.41726763134053    4.07659441355531
H         5.79633354728733   -2.23342997581016    5.35634208448885

