63
CSD_code = VULBOV | q = 0 | S = 0 | Stoichiometry = C27H27FeN3O5 | MND = 5
Fe        4.17895547149680    0.67751565236128    3.79119293569797
N         3.85160374410093    2.41325891558834    1.25392202417525
N         2.71406524743912    0.60817523441265    1.08197014034780
N         7.16377793813334    3.76605818427829    1.25117104298210
H         7.14240078135911    4.08349030563453    2.20984537034485
O         5.87226103126405    3.08928691950667   -0.49086903612010
O         5.11480786012731    0.15540493128409    6.48556646472183
O         2.65919195326693    3.01491447961150    4.71445104623362
O         6.97053987187847    0.83797061930603    2.89038404390571
O         2.92293491505934   -1.98025199241381    4.01718183184866
C         3.56870392764161    1.25471957277871    1.90459957478439
C         3.19072545885467    2.47676282911578    0.05673981469523
H         3.29866054179140    3.30438099071262   -0.61175304768072
C         2.47246853201942    1.33807239459238   -0.05208521286453
H         1.82100303358262    0.98533101497242   -0.82500400045952
C         2.13338216764497   -0.67311898888842    1.29014071013235
C         0.87075683127015   -0.76291210466401    1.87441013189595
C         0.30963074075683   -2.02015970729405    2.03124515004141
H        -0.66241997394514   -2.10824538302980    2.49449150495944
C         0.97499986970928   -3.16641378873234    1.61859540296554
C         2.22628191248084   -3.04230498485933    1.02957553066815
H         2.75173528685807   -3.93021787981456    0.70904954555997
C         2.82350237537571   -1.80458661611052    0.85461976760057
C         0.16658109537907    0.47448549981399    2.33892491426527
H         0.77621711050208    0.99254522959988    3.08066084287521
H        -0.79073264135846    0.22541802149421    2.78793403398838
H        -0.00529478799441    1.15977441367090    1.50869117970845
C         0.36839058812944   -4.51805717187276    1.83293229860880
H         0.66568898146519   -5.20760927309717    1.04630847098238
H         0.71180039095469   -4.92440921063091    2.78444532590591
H        -0.71681468984078   -4.45864065493220    1.86339693135322
C         4.18433875543191   -1.66721519721829    0.24545823261709
H         4.16035285684146   -1.00796787413480   -0.62214492627545
H         4.56661486323960   -2.63632368318345   -0.06252159601419
H         4.87332427924280   -1.23470981693732    0.97294378069633
C         4.80513718587823    3.41258913219230    1.64431654227086
H         5.11731132012697    3.22189338905771    2.67448625533475
H         4.34167195436833    4.40426280138023    1.58237027173297
C         6.00957411584361    3.39139959161123    0.67308995833365
C         8.39887820821057    3.95196941171960    0.57170032820232
C         9.00761704213961    5.20765523158173    0.65964018798095
C        10.21182629639580    5.41439135940604    0.01086181589698
H        10.68577465854649    6.38384311940119    0.07095515955303
C        10.81824053935555    4.40362318905289   -0.72514641392088
C        10.20067902194256    3.16586803439185   -0.78374695286088
H        10.66787877752348    2.36661229261947   -1.34114005099279
C         8.99704074527851    2.91150601510623   -0.13709178438758
C         8.35771751146519    6.31149563400868    1.44159980479762
H         7.32598913328514    6.45552798069472    1.12174474129558
H         8.89680475960451    7.24420289338365    1.30019837988764
H         8.35441257936413    6.08168700098848    2.50847121785506
C        12.11901515256903    4.66001823167450   -1.42334812245213
H        12.03445511508956    5.52563422700193   -2.07859739187583
H        12.41863838978296    3.80068362808066   -2.01720587275214
H        12.90298742024368    4.86906294675305   -0.69604185718605
C         8.38555740770976    1.54923239938531   -0.19498873837479
H         8.05109928302469    1.23636541346107    0.79217509654142
H         9.10219665404440    0.82453783707596   -0.57232213480725
H         7.51600402806791    1.55826742647358   -0.85190759367903
C         4.74044249724553    0.35588295408319    5.41625866165197
C         3.25541299671263    2.08789534934869    4.36618754489269
C         5.86705211614873    0.76147371101929    3.22939622865648
C         3.35474876981826   -0.93620208184613    3.79411449326619

