59
CSD_code = VULFEN | q = 0 | S = 0 | Stoichiometry = C16H31B9O2W | MND = 9
W         1.45761255782244    2.92047579547520    8.63937171653901
C        -0.39368661440760    2.35090353578673    8.37970962619144
O        -1.43793171916820    1.92035855406612    8.10991590955273
C         1.01365022015306    1.13260844373399    9.30607344852083
O         0.71032425117208    0.05381098888123    9.61635457316246
C         3.27395625065146    2.26824543338255    7.37226637909893
C         2.11583701538755    2.34111334770194    6.53186519949929
C         1.69295489137452    3.70679929366329    6.49258511518316
C         2.60897019317823    4.47317886309123    7.28532619764912
C         3.60140539619638    3.59757985239167    7.78826775716650
C         4.15398482010703    1.06408692333824    7.53803687471352
C         1.56889191709342    1.23193704469415    5.68170018574640
C         0.62725069199310    4.26434936396901    5.59668339193789
C         2.67082384181946    5.97056036044003    7.36141995088627
C         4.89559890183995    4.04230449369621    8.39931026473887
C         0.02002184155289    3.82221452890082   11.66963455441792
C         0.46002079414514    2.94734490940783   12.84048115331108
C        -1.41093241159621    3.66666799692582   11.19078228967933
C        -0.56740386319291    2.01320928293706   13.44560263436574
B         1.98408021121654    2.39419821297746   12.67131684460850
B         2.60680344128686    3.15877671087654   11.00049841411768
B         1.17743624678506    4.08972968920672   10.58692835981212
B         0.29648168981318    4.64188262407537   13.17708694271475
B         1.66113424545160    3.75583284366711   13.79688098797085
B         3.00669715781434    3.89708782391904   12.66783301642456
B         2.46106342582336    4.99170409822927   11.36739844044949
B         0.78632467536455    5.41501979227238   11.69417445952438
B         1.94844356359353    5.30731404639660   13.02483115290698
H         4.65520627862269    1.06989520747382    8.50508150284299
H         4.91915008105242    1.04818888238153    6.75872841480159
H         3.57531459229332    0.14498275628035    7.46308129850240
H         1.72679865569134    0.26248856289571    6.15152000062180
H         2.06559799681889    1.22487459025344    4.70914924756044
H         0.49977928468663    1.35693371046118    5.51579540193840
H        -0.18945022806121    3.55474730644934    5.47226538957606
H         1.04247850232030    4.47902220660022    4.60962066927944
H         0.21581433528928    5.18932086980467    5.99812874021141
H         3.04126290225083    6.30041594705138    8.33120573630730
H         1.69230332003678    6.41895473201563    7.19715563778660
H         3.34878256322093    6.35147097515405    6.59411451282084
H         5.44210126895407    3.20646388088136    8.82946166759767
H         4.74246434561092    4.78936038812646    9.17618669164884
H         5.52054746669430    4.48852673857399    7.62195350011767
H        -1.61922690863953    4.36541455961125   10.38116545568375
H        -2.13730973896892    3.84886663319685   11.98100860644250
H        -1.57556485382485    2.65792542226840   10.80758127630983
H        -1.46689106009956    2.52838587711486   13.77908318646687
H        -0.13838674813387    1.50084250032286   14.30432065405208
H        -0.86205297977856    1.25340319736190   12.71979998891710
H         2.31855255142514    1.39976425901361   13.21263688786814
H         3.62052478531942    2.82902129579378   10.49342120102279
H         0.78115170156442    4.35369285882929    9.35458912661126
H        -0.62138043051862    4.98896866892235   13.82057239621127
H         1.74999975092384    3.48445335549938   14.93517381933900
H         4.13482732623207    3.87338823230906   13.00398715605558
H         3.21041050795535    5.69232514994790   10.78349141490658
H         0.19309260836790    6.34380795719878   11.28327886337912
H         2.31191519694053    6.24478228737705   13.63239111156465
H         2.01477329246712    2.06971613674008   11.41551460266079

