53
CSD_code = VULKES | q = 0 | S = 0 | Stoichiometry = C23H28AuP | MND = 4
Au        0.54935342592203    7.44607487624572    4.55519826311916
P         0.87372619325365    8.60480392447300    6.56987645029053
C         0.62863197109558    9.20372466868060    3.45369074624891
C         0.17444050395071    6.37476846752084    2.85276589075172
C        -1.27298057506079    6.49895283374000    2.39830426258808
C         0.51468511831999    5.68160501549682    5.67737345199433
C         1.78907075460150    4.85227634177452    5.55805100034680
C         2.26252068367135    7.89899896342603    7.48877096162366
C         2.17046061640648    7.36194516098494    8.76610165950980
C         3.28784467264333    6.78878682158597    9.34839091822655
C         4.49034016029762    6.74373311745360    8.66298209169833
C         4.57904512014663    7.25827734679092    7.37855117719634
C         3.46568392011594    7.82358484202156    6.78732191934958
C        -0.54069697088708    8.56906693622737    7.70384436197145
C        -0.50564770504794    9.27953979177649    8.90236733908309
C        -1.60225518064311    9.26086084622662    9.74279005592556
C        -2.73721219091448    8.54595044911612    9.39017506458588
C        -2.77914936729948    7.85276490523234    8.19205940060836
C        -1.68342228510903    7.86443374650712    7.34625157842900
C         1.21749634542215   10.38964419344530    6.55612690897952
C         0.14997264932983   11.21222604621610    6.19852189606364
C         0.32837496584244   12.57739539343065    6.09926339483230
C         1.57380781323665   13.13248089472651    6.35095373511421
C         2.63641148886125   12.31798685660045    6.70329057342361
C         2.46570749631722   10.94785134475985    6.80228418724687
H         1.50745199156321    9.78716385690454    3.73497145258865
H        -0.23839341871624    9.82981693360999    3.66411920173757
H         0.66819974338232    9.07290913516931    2.37620829515437
H         0.39921808113240    5.32171318069245    3.00931813954433
H         0.82574050022038    6.72017306043694    2.05133273308292
H        -1.43346443893095    5.92681333032053    1.48279586694989
H        -1.53121645447970    7.53614537557304    2.19812634798078
H        -1.95380826880877    6.11592346664915    3.15624023105703
H        -0.33405010251027    5.04680939499759    5.40925211194004
H         0.38041635988866    5.92865513876063    6.74111046177830
H         2.65787931988115    5.42461284752021    5.88287443833124
H         1.95624924038905    4.54221902255532    4.52818117114081
H         1.73382853300018    3.95260792925357    6.17522287710148
H         1.23036489500554    7.38235152907208    9.29912746080549
H         3.21683880791583    6.36992164276635   10.34156745990465
H         5.35744469273938    6.29468778349861    9.12409145940503
H         5.51134632808083    7.20490613430552    6.83553733893773
H         3.50768098854797    8.19969414031292    5.77158019109555
H         0.37861268240247    9.84597105729926    9.16442752847624
H        -1.57492587698258    9.80736535336385   10.67424035213891
H        -3.59219144134387    8.53544688197516   10.04990564395445
H        -3.66707213083259    7.30434372525215    7.91441123549097
H        -1.70367136576582    7.33156694697128    6.40503118357069
H        -0.81744464364758   10.76749301577251    6.00231486650596
H        -0.50099087191062   13.21108181256323    5.82135341668782
H         1.71545949547865   14.19999278323507    6.27035263367101
H         3.60670130866207   12.75022400680140    6.90064520700114
H         3.30018642121396   10.31875672992869    7.07905340478756

