69
CSD_code = VULLUJ | q = 0 | S = 0 | Stoichiometry = C20H36MoN2O8P2 | MND = 6
Mo        2.85834780380235    0.25712343985774   10.97765233774626
C         1.77572135249656    0.18274313702108    9.35084120538433
O         1.19523966908316    0.09282325666277    8.37111351422860
C         3.90271843607239    1.69135432712984   10.18995245632155
O         4.48178939862462    2.58262264555867    9.76572425511646
P         4.00604801839777   -1.53044415946415    9.92159447708062
N         3.07622605390414   -2.75975899680895    9.38019901617971
C         3.44881084690658   -3.82145671691423    8.46007070465338
C         2.38771962605697   -3.93807787201950    7.37061415629475
C         3.63636192990526   -5.14276052082900    9.20207063900977
O         4.83677833686986   -1.21750955740989    8.56936847224685
O         5.18815872098385   -2.31505031139943   10.76680666925401
C         6.37417831752754   -1.56436350550377   10.94565418333863
C         7.06331282564501   -1.25190517283360    9.60930643294525
C         6.04875516736356   -0.50250917470185    8.73099490451982
C         7.49402836952327   -2.55203780684755    8.93047529757919
C         8.27321245614909   -0.35338317901503    9.85785090203135
H         2.15558198874145   -2.83961357681430    9.78814901587974
H         4.39721716520866   -3.52162125242373    8.00510635643860
H         2.26626812591075   -2.98139195020711    6.86887052330537
H         1.43261175391952   -4.22552732029675    7.80657470672000
H         2.67583440052876   -4.68646285477576    6.63684520303668
H         4.38398116245147   -5.02561327030719    9.98324522089099
H         3.96401558274685   -5.91961001986595    8.51550922971940
H         2.69858831355403   -5.45269289691076    9.65818318786923
H         7.02678471970003   -2.16575290644126   11.58667030570620
H         6.14148087888241   -0.62130509324771   11.46123930259068
H         5.84268109231039    0.47944596155062    9.17490972322635
H         6.44823692332225   -0.35496989569328    7.72271071094276
H         6.63517318225319   -3.20291962893693    8.78534036081879
H         8.22297348632300   -3.07518483367872    9.54541641834245
H         7.94070942378490   -2.34380815730082    7.96109574292583
H         7.97341343999921    0.57413369951747   10.33994523191884
H         8.75985302034606   -0.11031959874969    8.91666034234277
H         8.99219703305026   -0.85809115662093   10.49849633836214
C         3.94061468665384    0.17925516026753   12.60448912969000
C         1.81501531420059    1.69090125959241   11.76758948702753
P         1.70950864416289   -1.53144624284486   12.03085508502568
O         4.52087149890709    0.08660083077083   13.58411264774912
O         1.23685544370977    2.58215650868120   12.19313826572429
N         2.63788355758479   -2.76341555283478   12.56874862090881
O         0.87933705946146   -1.21967437832650   13.38379956975260
O         0.52676816707360   -2.31414644642004   11.18498432118928
C         2.26769078727031   -3.82196671562907   13.49345841275169
H         3.56024651681224   -2.84055531757242   12.16424005451467
C        -0.33225738208572   -0.50376841395682   13.22324510535947
C        -0.65895535966703   -1.56271141491134   11.00747661537399
C         3.33017074597134   -3.93374624698341   14.58205459447789
C         2.08053295926585   -5.14606376661349   12.75631300103133
H         1.31949296282260   -3.52160880039883   13.94848423720603
C        -1.34745997263732   -1.25178135594305   12.34451382191954
H        -0.12573144503281    0.47848721337811   12.78018750197162
H        -0.73133493212568   -0.35695063381562   14.23179344316708
H        -1.31203544176810   -2.16293299605357   10.36585771417392
H        -0.42599671624956   -0.61905929444066   10.49308984634851
H         3.45140206875358   -2.97516100154030   15.08024551585975
H         4.28501575279040   -4.22197299177643   14.14599754047450
H         3.04359993907151   -4.67973372036279   15.31886170181157
H         1.33210860170061   -5.03228510156369   11.97542047979538
H         1.75405217071480   -5.92066069758768   13.44596004182717
H         3.01809724778233   -5.45697888938161   12.30045523958101
C        -1.77810698656136   -2.55266302500868   13.02196013546044
C        -2.55729080412327   -0.35271035345037   12.09767258190685
H        -0.91934017377894   -3.20397093865226   13.16570798862380
H        -2.50759434057765   -3.07481603728993   12.40682088624241
H        -2.22410554333066   -2.34553815210940   13.99189278631193
H        -2.25754518585916    0.57535374805557   11.61660350828040
H        -3.04346386139331   -0.11075117329755   13.03939023043113
H        -3.27665500185955   -0.85649014325496   11.45672234305145

