67
CSD_code = VULLOD | q = 0 | S = 0 | Stoichiometry = C20H34MoO10P2 | MND = 6
Mo        5.79195448828431    2.62467924344069    4.21842532018228
C         4.10131646572359    2.37115158559527    5.13265583419822
O         3.11259217558164    2.22881663781635    5.68985309682631
C         5.56923377349904    0.88448518435128    3.36340541727050
O         5.38288091549795   -0.13026956163400    2.86565114026725
C         4.88555524544117    3.46089182439416    2.71701869376110
O         4.37568189353161    3.96761481819400    1.83164524604805
C         6.03532729151136    4.36377183193972    5.08251350744069
O         6.20693865433804    5.37366055253683    5.57942858369283
P         7.89485987827192    3.07205917713818    3.23588132190785
O         8.73769082627672    4.17107551687025    4.04825696535583
C         9.85246690545398    4.78190677577547    3.40785249183269
C         9.45760994814184    5.46548568527987    2.09174026773416
C         8.43441343274551    6.56740397584546    2.36430021339403
C        10.70287362451669    6.04137021901857    1.41975545727638
C         8.83529785924446    4.38939340224906    1.19169972014165
O         7.70133891995539    3.78350810583183    1.79316834596200
O         9.08887654692025    2.02792569383930    2.93447156868863
C         8.81944788666381    0.64378241832906    2.73692168777076
C         8.28756195743670    0.40973937478363    1.32885650701654
C        10.11829567163328   -0.10797740906408    2.99750984102545
P         7.05201306406614    1.73755763214090    5.99249531636078
O         6.88226584093562    2.61629712477048    7.34225335138975
C         7.77069715069484    2.36704402382992    8.42112288355076
C         9.23888801620518    2.53909997955922    8.00987546807298
C         9.48066283629457    3.96474093785053    7.51548095189554
C        10.14312606680585    2.21964770527511    9.19949047563029
C         9.51007932347015    1.54244237044061    6.87557425819219
O         8.63987661588331    1.73844754050257    5.76565445722808
O         6.91424279949992    0.21628910626392    6.52433049105435
C         5.64413459411370   -0.43372780544174    6.56646824865758
C         5.90197347721880   -1.93070795355493    6.45229265381155
C         4.90649528260038   -0.06958305335958    7.84832071819317
H        10.62675375158658    4.02928106660912    3.22094192015073
H        10.23501356858490    5.51638018734646    4.12341371859716
H         8.85428127579612    7.31998023509845    3.02784686312214
H         7.54624696278719    6.14756774338126    2.83346908931113
H         8.13761624124620    7.04616723070894    1.43408286941182
H        11.16200243076720    6.79168584871200    2.05871259418816
H        10.43666247266769    6.50935798888199    0.47532915621082
H        11.43486584861828    5.26110679340966    1.22320786655230
H         9.58679452376878    3.62340775345693    0.96105615013859
H         8.47707246861853    4.82751782696980    0.25551393060272
H         8.06473690137765    0.32978796118821    3.47417727234874
H         7.40817875260132    1.03146664994077    1.16310838352612
H         8.01286250590460   -0.63359801177817    1.19908518708432
H         9.04485016392310    0.67327476162845    0.59286646765128
H        10.45697202091622    0.08893470732584    4.01102203436366
H        10.88598811322105    0.21954411169592    2.29999149871858
H         9.95935111544826   -1.17565645714107    2.87573726245281
H         7.61340588490483    1.35021297343328    8.80391879196177
H         7.49988691315594    3.08437307255025    9.20143274266104
H         9.22151911167034    4.68308117614450    8.28988222476488
H         8.87310580348899    4.16737642649437    6.63522727227639
H        10.52727264234196    4.09817225601587    7.24969481956469
H         9.95024763048358    2.91385034982421   10.01354889456401
H        11.18819541088152    2.30707469175255    8.91255568757309
H         9.96884945442057    1.20854115206797    9.56083946567503
H         9.40572091054869    0.51596116986353    7.24613696358930
H        10.52181758969351    1.67758632439211    6.48041204178443
H         5.04944218254403   -0.09303696441999    5.70534272515946
H         6.43164712748146   -2.14551713287976    5.52771415216777
H         4.95884495225097   -2.46900296817854    6.45216891052825
H         6.50723868754256   -2.27075057354624    7.28959197531798
H         4.76845723999547    1.00893768409275    7.89697456466877
H         5.47428026757484   -0.39600137667850    8.71774177969370
H         3.93144964501228   -0.54848732158612    7.86198422422206

