71
CSD_code = VULPAU | q = 0 | S = 0 | Stoichiometry = C34H26N4O6Zn | MND = 6
Zn       -0.51221727398922    5.25536031517678    3.49151417626036
C        -2.28220813181952    3.96075662448960    5.31215234395074
C        -3.74074544345315    3.82390112514612    5.81414278193664
H        -4.07853286033073    2.79682942027698    5.61271269718451
H        -3.76670493890324    3.99373448496158    6.89227776230475
C        -4.69203258903021    4.75292138642743    3.86873503767539
C        -5.13256454618267    3.65081342232148    3.19116711305036
H        -5.37971453385182    2.74769072711613    3.73182178241919
C        -5.26917540585733    3.65863209033879    1.78709782690554
C        -5.72336206498166    2.53594361719926    1.06873629884194
H        -5.98878319646744    1.64061337481184    1.61534302187480
C        -5.83946657131434    2.57459523881220   -0.29553382177447
H        -6.19169401481886    1.70861464487435   -0.83827580766751
C        -5.50871098455178    3.74230298514195   -0.99654255824820
H        -5.61305886578966    3.76176450817696   -2.07225089683152
C        -5.06443440971369    4.84887701838297   -0.32367490160744
H        -4.81276403534627    5.75404586024486   -0.85788055644812
C        -4.92894723691298    4.83762316962532    1.07822425368745
C        -4.45790381688151    5.96198910845989    1.78739356691833
H        -4.15613130172303    6.82492021116129    1.21523886824143
C        -4.34187125275154    5.94261171192390    3.15331166427604
C        -3.28272907571390    8.05910539902206    3.27279864656403
H        -2.99737844149528    8.74414190265699    4.07573249892041
H        -3.98413582322940    8.56298130794921    2.59669271376665
C        -2.00113634104826    7.63665402503142    2.48590591697298
C        -0.87169451064014    6.43453996462450    6.23412318580361
H        -1.75595857492921    6.83536108998800    5.75988069075067
C        -0.68812352443163    6.47946791473177    7.60892764563169
H        -1.43427737898572    6.92867351617967    8.24469092606976
C         0.45987039119975    5.91533079998754    8.13779533106118
H         0.63059298837997    5.90860569331497    9.20443756515674
C         1.39106796089186    5.35133544778924    7.28116590126502
H         2.28629805874349    4.90367068458208    7.68143435421473
C         1.13178620112542    5.35763749845518    5.91329294735120
C         2.03815633830046    4.80519007636203    4.89475215792867
C         3.29601420080197    4.27765682682718    5.19123929050880
H         3.65366768229496    4.23962360195907    6.20695460181675
C         4.08809571808653    3.80214715610444    4.16193027422341
H         5.06388447064579    3.38900229210307    4.37054858901459
C         3.60949854447647    3.86837761865708    2.86234931756955
H         4.19853325203433    3.51423181638625    2.03163755962931
C         2.34672378899119    4.40008541331339    2.65594407094585
H         1.92023569385199    4.46560945897499    1.66593777411755
C        -0.52760137763900    5.87042348229791    0.51201323626514
H         0.09516769861016    6.70504403503265    0.79236273174930
C        -1.11430216646101    5.80155093280273   -0.74444818811471
H        -0.97042519334211    6.60480560378956   -1.44773219687048
C        -1.90054132057110    4.70551260760253   -1.04643305805909
H        -2.39071132134441    4.62025013169794   -2.00464200012823
C        -2.03826322651348    3.69788819221530   -0.10424761340340
H        -2.61847178386390    2.81804015770133   -0.32937042991837
C        -1.41145299361013    3.83962904540589    1.12838528511875
C        -1.42264698512273    2.79115919156670    2.15686764504169
C        -2.37553556829888    1.77908015854505    2.20926795782460
H        -3.19286710927424    1.75440743580450    1.50699931519464
C        -2.28090177458011    0.83301018925096    3.21718195043965
H        -3.01917906494661    0.04794031725216    3.29703079670273
C        -1.23116265310220    0.90857125272931    4.11622917281327
H        -1.11967450399850    0.18988151263025    4.91209304479288
C        -0.33579907267570    1.96206129937921    3.99153065476024
H         0.48851473205511    2.07520192493480    4.68152075306531
N         0.01157123420463    5.88505349607406    5.42568112448023
N         1.59032404555089    4.85140016400432    3.63889098200136
N        -0.68244469789183    4.92272798439615    1.42386909589671
N        -0.43162943605265    2.87865648205521    3.04887246888462
O        -2.16161571201007    4.53682296376910    4.19533042570204
O        -1.37029684880980    3.50832642177837    5.99748544344113
O        -4.58528268116608    4.79035397466214    5.23710164526448
O        -3.88735776031577    6.95842955159043    3.92190342661573
O        -1.11061831058543    7.06406002287388    3.17841694562061
O        -1.93806429284944    7.90924091802334    1.29345677252670

