53
CSD_code = VULPOH | q = 0 | S = 0 | Stoichiometry = C22H24MoN2O4 | MND = 8
Mo       13.42652027891719    6.30267763562356    0.41219403869792
O        10.99061450284636    6.39487949304651    2.04089424020507
O        14.11424187792890    3.74329861423473    1.66959961020189
O        13.11745151223408    3.91601061092159   -3.12347000700713
O        14.66636286142561    4.47452669648196   -1.65328943342008
N        11.94890440586321    6.31529850279133    1.35565196016581
N        13.84199888033986    4.74395251196319    1.11843594450585
C        15.11081191424390    7.79260942031373    1.01064482041005
C        15.47836165224983    7.24926214629516   -0.26182024865078
C        14.49525274678744    7.63704679836392   -1.20384682206756
C        13.49583468776635    8.40458857651631   -0.52157838663120
C        13.90483364479083    8.53497310631627    0.83738930186158
C        15.97868892874527    7.80903558257810    2.23687258669317
C        16.78751797604884    6.59487650767041   -0.59698605918710
C        14.62027228463683    7.51043409794019   -2.69450894783423
C        12.42187218911975    9.21673602398493   -1.19362771094564
C        13.27190977410671    9.43656066547972    1.85907781295322
C        13.49582580724803    4.56877850674131   -1.99372301313453
C        12.52645698378427    5.34711475917141   -1.26266559138621
C        11.26068728509442    5.37090743630696   -1.75500419821865
C        10.87835430127208    4.66415114459169   -2.93595028900914
C         9.44007427226199    4.68921900196121   -3.35387952600710
C        11.84705237006552    3.96189875163435   -3.59057021333215
C        11.67872416105400    3.15814761774527   -4.80954329539350
C        10.93102479794843    3.61048403195587   -5.89487659470713
C        10.80369745531930    2.82646717210109   -7.02693340636326
C        11.42054062825330    1.58829369953267   -7.09328145903760
C        12.18318482638536    1.14135072975027   -6.02643318777410
C        12.31775869663180    1.92148986886058   -4.89439729353524
H        16.68668992786348    8.63970049921298    2.18090783308503
H        16.54779374171460    6.88521054974430    2.32960434419864
H        15.38327049185851    7.93250833481104    3.14028988455420
H        17.44549938874086    7.31229489950638   -1.09304379987949
H        17.28762637610824    6.23602787178290    0.30013626686718
H        16.63333168504443    5.74733444791496   -1.26261193652379
H        15.12591515544093    8.39420348065266   -3.09244572298085
H        15.20582741696095    6.63359765153612   -2.96238189009684
H        13.64450745604251    7.43565495056762   -3.17472835804497
H        12.82822418193941   10.17712448708844   -1.52134056352833
H        11.59331558403885    9.41407395917732   -0.51464060314059
H        12.02988139638166    8.69956234900044   -2.06853153387897
H        13.69549138183493   10.44058164756186    1.77981148530326
H        13.44790307382752    9.07415812285513    2.87082915710762
H        12.19556173606673    9.51082941126018    1.70812390197045
H         8.80657685801181    4.69316595999692   -2.46912050817885
H         9.21904789461153    5.59230380732694   -3.92322584420858
H         9.19059807398680    3.82444783250593   -3.96246917593247
H        10.48630091383416    5.92772071946179   -1.23668258632151
H        10.47608858218225    4.58808741242023   -5.86574990091741
H        10.22439925430256    3.18676036866693   -7.86437104448717
H        11.31500046789586    0.97787254815460   -7.97772755463996
H        12.67551000090331    0.18167169304976   -6.07811834988960
H        12.91240725713104    1.57903728517211   -4.06148813255250

