79
CSD_code = VULPEZ | q = 0 | S = 0 | Stoichiometry = C26H41N2O5PSi3W | MND = 6
W        18.72064892485177    3.47423484909766   -0.07621123059628
Si       16.54864947147221    5.68539404328874   -2.70953542485126
O        18.99941724159375    1.38842257558999    2.23009113000871
O        18.73640549223040    1.14290781142071   -2.18134148538962
C        20.71382839643769    3.66023578775949   -0.05790648219527
Si       15.94693347259757    7.06456079344545   -4.51308876727940
P        18.54025010402722    5.25010684833854   -1.98399549909125
O        21.83798256027207    3.72940517128302    0.14363914091240
C        18.91180071059804    2.15032904271307    1.37405946021379
C        18.74442483076153    2.01398735130579   -1.43368775493258
C        15.64220205100310    7.40244985690025   -0.33844445806722
N        15.01294886442656    4.64758288236466   -2.45729524557550
N        15.54656175150290    6.32819716539068   -1.30460261201733
C        16.77056131589044    3.22785817106554    0.16450785483191
C        14.59328382977714    5.43205459522296   -1.48066099239359
O        18.74575298174888    5.65914323254138    2.17625839954127
C        13.27167649721625    5.40140988198493   -0.83320221399858
C        14.41024452331980    3.47833205216302   -3.06593597478598
O        15.68888864875896    2.98675619558463    0.48331184847486
C        12.21449382644907    6.04292738908273   -1.47436324665608
H        12.38573079273091    6.54475688023844   -2.41546459906368
C        18.71638035961111    4.90631140171014    1.31198452293094
C        17.02174447713765    8.03768098864162   -0.50276644915986
H        17.79661530707275    7.30861303018325   -0.27977310874138
H        17.12478946373812    8.88048149202191    0.17555227997838
H        17.16250132420911    8.38477546825214   -1.52226523064368
C        14.56360460803616    8.46509331172326   -0.58949883752330
H        14.67642414142323    8.88657151709520   -1.58621118895945
H        14.66518991730342    9.26655406012205    0.13755911741456
H        13.56620362932701    8.04216102467527   -0.49480279531696
C        17.01538476423593    8.64734205284536   -4.42211436305973
H        18.02459954988351    8.42342421255325   -4.09144336803133
H        16.60108302495176    9.37884507711643   -3.73411677829184
H        17.08808739347794    9.12714881464156   -5.39374247851163
C        14.12031029884723    7.66268320580210   -4.56423780595957
H        13.98309032993720    8.41656112458400   -5.33587397245373
H        13.82407879642614    8.11128449351630   -3.62022154537977
H        13.42875363598698    6.85325182051496   -4.77758710900115
C        13.46072887927123    3.90175603094740   -4.19493849111925
H        12.63764249440881    4.49181327307913   -3.79819487719470
H        13.04761576574771    3.01964490155478   -4.67754469466810
H        13.99299127159912    4.48941046821514   -4.93843205682735
C        16.28727505320197    6.21332859695580   -6.19221006354216
H        15.75837964287603    5.27105296812328   -6.30294058901296
H        17.34516893640641    6.00805680907436   -6.31815840841705
H        15.98208726693626    6.85180394016634   -7.01635042085511
C        13.64226990600702    2.61556293113636   -2.06028776638843
H        14.24677201599750    2.42273802192923   -1.17968061516459
H        13.39630606432848    1.66203900918222   -2.52131813732000
H        12.71563294070747    3.09263063738089   -1.75248953238032
C        13.04656181979287    4.76331168008975    0.38166344867386
H        13.85421896411878    4.24912438302793    0.87627472798963
C        15.51543074016618    6.85058928412866    1.08711810257963
H        14.48580274045682    6.59282461941133    1.32095899602438
H        15.85460449916506    7.59440416792248    1.80309050532026
H        16.13574789003453    5.96243884839311    1.19301665552807
Si       19.70448108698509    4.65228883484802   -3.81352095008176
C        10.73409567981386    5.41033753291450    0.30372744759854
H         9.74917827400062    5.41314662185966    0.74553881972829
C        15.56965864172039    2.66570566339157   -3.64413539438182
H        16.10265040903710    3.25236890119625   -4.38650477894212
H        15.20351089091458    1.75491150722182   -4.11003006294861
H        16.26575813322971    2.40084507250396   -2.85102666213795
C        11.78181321844768    4.76927782195338    0.94312508321333
H        11.61633808349758    4.26888840472608    1.88514935000216
C        10.95303573513680    6.04640351417522   -0.90655598450442
H        10.14092691057452    6.54781215309935   -1.41186812760446
C        21.35708226297651    3.88096352148533   -3.24349696912066
H        22.01463640987625    3.67968680161820   -4.08475126456079
H        21.19548021864562    2.94237996112205   -2.71990548136693
H        21.88273845818087    4.54923316552318   -2.56805626263796
C        18.88735655465339    3.41715726930121   -5.03062099772307
H        19.58617840888305    3.14458393866408   -5.81592319480253
H        18.01016581664654    3.84178678623677   -5.50735280624545
H        18.58794727892910    2.50320053808180   -4.52898242611551
C        20.12653539451300    6.24293895023492   -4.78821804471672
H        20.58588669867149    6.98131887016689   -4.13994771088552
H        19.24463274158730    6.69418066829142   -5.22850617732092
H        20.82434849260813    6.02931725789820   -5.59118692402925

