88
CSD_code = VULTED | q = 0 | S = 0 | Stoichiometry = C28H51F4IrN2P2 | MND = 4
Ir        0.72258040135781    6.03807266866283    4.50161040893590
P        -1.05800293276870    5.50431208841671    5.91918785910177
P         2.21248916417362    6.73808866621386    2.84445312374655
F         2.30423719262326    3.60533975318967    5.25846388673121
F         2.36739865225666    1.00914398833965    4.34841577516239
F        -0.77424147061314    1.84901980305092    1.22681833185983
F        -0.99687929764117    4.46104163946683    1.97139830739207
N         1.21979623795297    8.62272089768018    6.06735340498685
N         0.79140568664434    1.46147351717783    2.79963220498356
C        -0.77715139482952    6.05385843393774    7.69069484870551
H        -0.70707388246046    7.14186465096386    7.56992428134485
C         0.58695962496831    5.58011041179211    8.18815216683732
H         0.90234689820396    6.17560394809434    9.04382393752372
H         1.32974860211662    5.68858379779857    7.39759422676111
H         0.56148211975448    4.53972355958398    8.49669696706044
C        -1.87102461326095    5.75461517563245    8.70883999632103
H        -1.91370941389832    4.69379210887108    8.94026250694942
H        -2.84706042685750    6.08003139845651    8.35619208884948
H        -1.65632730673897    6.28435980757450    9.63715984591039
C        -2.61382756604192    6.43858891738905    5.46390859115917
H        -3.43612126228296    6.10953645783412    6.10667921855737
C        -2.93503637366600    6.11748026143109    4.00729679108103
H        -3.82424902441196    6.65451464094907    3.68046225318992
H        -3.10490318881640    5.05518513633408    3.85327734407045
H        -2.09982709390876    6.41621956595721    3.37675205156329
C        -2.43417179067765    7.94463801405777    5.62392752470511
H        -1.53009659964993    8.26728290190360    5.11010571009531
H        -2.36796359013534    8.23318945847954    6.67035827608986
H        -3.28418813605664    8.46650563464799    5.18646553713136
C        -1.69077225743835    3.73195775384331    5.94747145870394
H        -1.61974355045773    3.44055153567698    4.89107257824326
C        -0.73497847128537    2.83696079088351    6.73487290530825
H        -0.93523292028335    2.90136814155605    7.80191148785643
H         0.29962524568784    3.11926587657253    6.56233081217223
H        -0.85916923355888    1.79711374469189    6.43473495832732
C        -3.13036051336461    3.48229545418666    6.39352225385632
H        -3.31755005687543    2.40892121134211    6.36795299947464
H        -3.85026859042502    3.95493711692838    5.73113353597171
H        -3.30872976279181    3.82663465054077    7.40757134193171
C         2.82323560464428    5.46889806538267    1.59626150471022
H         1.92562519283609    4.86196395547477    1.41963267230389
C         3.31163541303760    5.96473212646063    0.23639470288728
H         4.14011594563662    6.66043616189521    0.32861589848111
H         2.51641740907804    6.43859011175879   -0.33261131467905
H         3.65890921253706    5.10675678831547   -0.33897484142089
C         3.87265278256501    4.55907797009279    2.23285444237501
H         3.93857092828770    3.61929224362634    1.68576977297418
H         3.62113830476349    4.33355219466128    3.26540626877993
H         4.85451207330483    5.02619384349072    2.21179888852157
C         1.46491215880796    8.02643118399257    1.71140579674609
H         2.16586697446145    8.24480104799197    0.90013285422208
C         0.17808900730278    7.43829858697087    1.14010940207931
H        -0.50575674613368    7.20670794757828    1.95484641246080
H         0.36173788097475    6.52024348746807    0.58839968501769
H        -0.30779444285573    8.14676279773276    0.47083510675960
C         1.14689824649125    9.32309033713256    2.44845117276482
H         0.55592613764826    9.97546937510607    1.80684226516425
H         2.05034095156311    9.85980803088586    2.72822212979998
H         0.56989198724275    9.10841692453848    3.34606195373252
C         3.70017918576951    7.64295925875891    3.54031533406173
H         3.22518510408000    8.51827770290253    3.99936754639931
C         4.75643918917056    8.13158356211796    2.55638431650993
H         5.45802899011040    8.78596550119044    3.07398579229420
H         4.31208946023324    8.69638877548294    1.73994022314251
H         5.32501103150197    7.30224028358899    2.14444291247044
C         4.32850806720303    6.84145626044936    4.67852364092980
H         4.96565736754977    6.04582289920420    4.30528892545684
H         3.54753389523042    6.39788034499446    5.29680383433697
H         4.93813357459713    7.49186009041012    5.30450066963475
C         0.96393187025265    7.67326784277560    5.41318014077537
C         1.45330010465541    9.80836252599067    6.78694376133054
C         2.86637317360278   10.30613696559752    6.46012601655693
H         3.59911232461262    9.53979971632339    6.70151569885572
H         3.08878606880995   11.19964276369376    7.03739027382113
H         2.94836887861509   10.54626587975724    5.40242505117237
C         1.33557530098761    9.49819408636771    8.28398902106233
H         0.33177825426931    9.15410141056154    8.52239692719532
H         1.54531261344146   10.39100335203736    8.86707365667984
H         2.04333923622244    8.72101801318464    8.56217181878259
C         0.40944291450388   10.85300207879371    6.37117559865976
H         0.48208280585731   11.05666405214396    5.30512095372914
H         0.57320481491362   11.77852712150103    6.91671873386912
H        -0.59407508118259   10.49223379561929    6.58487285147676
C         0.64139086534096    4.17515380042766    3.67437177436415
C         1.49292395236581    3.21176008884858    4.23147237919423
C         1.54112364243083    1.90654106660730    3.78722710949934
C        -0.02383818335097    2.32613150817602    2.23355624770193
C        -0.12533354852034    3.64833249176952    2.62748221769802

