90
CSD_code = VULVEF | q = 0 | S = 0 | Stoichiometry = C28H53F4IrN2P2 | MND = 6
Ir        2.04171555832028    0.81972863397779    4.79185510175265
H         2.57743243363995    2.13396327651831    4.21976231674873
H         3.11739465918879    0.92371417593491    5.91213846796648
P         3.73103431085338   -0.16336292711951    3.45441493516387
P         0.61595104107937    2.15555481376188    6.13415594913197
F         1.09827781730116    2.96244389451380    2.36020640315790
F        -0.21264756777869   -1.46116661821137    3.60477554064033
F        -0.54738206347794    2.71915333776604    0.28873594526858
F        -1.78020162111329   -1.45074661501467    1.46987008052941
N         0.92326771178110   -1.68145324198304    6.25451608623647
N        -1.14696591887782    0.63043922095727    0.87776615088752
C         1.34417444592375   -0.79641279921435    5.61855325298868
C         0.62868440594900    0.74648285620743    3.15110451182709
C         3.95079502566681   -2.02121198050762    3.57036315264264
H         4.73892949293055   -2.30679361230015    2.86680513057303
C         3.51022850787094    0.06767995846649    1.60052434616069
H         2.43573272242927   -0.11881616527008    1.46652999540330
C         0.31459797982653    1.56215324444663    7.89834815124021
H        -0.40795126064145    0.74685650625333    7.76362378964602
C         1.56299812916012    0.96423568224723    8.54330605522545
H         2.32695940461609    1.72007703243735    8.69912537555859
H         1.98898750832374    0.18342510409881    7.92194833907494
H         1.30613667935792    0.53867546985282    9.51365270780294
C         1.09730094064258    3.94887715703684    6.35254096010475
H         0.34741289966529    4.39898456555984    7.01278450116285
C         2.66039927810298   -2.72803158245324    3.17145587979030
H         2.81248708420527   -3.80705781576071    3.14868810878389
H         2.31173522451660   -2.41517876547700    2.18975680946640
H         1.88010391907878   -2.50872855581584    3.89180174245251
C         4.36444452963316   -2.44134646986049    4.97780160319478
H         3.72269787693308   -1.96399880084321    5.71664806184201
H         5.39620899813809   -2.17301751783278    5.19100147666020
H         4.27227354159636   -3.52201014503040    5.08339239350012
C        -1.12393077773274    2.29121577376431    5.42546889649227
H        -0.90935986432284    2.49483850423674    4.36858078676464
C         5.46366966314150    0.39851761147923    3.92893557417486
H         5.52891219006875    0.02067060371367    4.95803025925523
C         3.78094434454372    1.51796894476988    1.20679794391835
H         4.84701401915674    1.68778021197665    1.07533182827192
H         3.40758182777706    2.20128056272176    1.96494674340292
H         3.28678491852657    1.74958832084983    0.26423308530810
C         2.47322326162047    4.06832572436649    7.00007692714826
H         3.19028840054253    3.45714959647006    6.45729373920404
H         2.46157891991109    3.74971534002479    8.03897390154956
H         2.80727679036865    5.10435521440525    6.96977583564217
C        -0.41790961031551    1.69251953638308    1.14178240550073
C         0.44234998255715    1.78747713788365    2.22455143819919
C         5.62447259027068    1.91398676644059    4.01020489852680
H         6.53336453860772    2.15121652112420    4.56164812936061
H         4.78156105180275    2.35764856064744    4.52967828688796
H         5.70171205988399    2.36280064753159    3.02502651496139
C         1.09854232170642    4.68798599285547    5.01886002279659
H         1.31841642441267    5.74215137355216    5.18242556773806
H         0.14350126485689    4.61619330995639    4.50583596631848
H         1.86200216238939    4.27678955743065    4.36546586164229
C        -1.02846369440767   -0.36755711269140    1.72312446552602
C        -0.18884434727673   -0.34590385834356    2.82483849177659
C        -2.06368222095377    3.38949458101134    5.92006174727535
H        -2.90220821648457    3.46174785849816    5.22745414101398
H        -1.58591743007861    4.36340389934449    5.96286684305357
H        -2.47455555306073    3.15306614061392    6.89856238375240
C         4.26289364521759   -0.87483888370793    0.66256751958061
H         4.02056740513194   -0.59810721715685   -0.36346869955946
H         3.97393837256624   -1.91326563551814    0.79720496288123
H         5.33853565473387   -0.79372395065123    0.78207071949205
C         6.61782172229259   -0.18646198613308    3.11803319783496
H         6.66153509025271    0.26005254351102    2.12805880479931
H         6.55773679201484   -1.26661425118338    3.01781017209475
H         7.55530289387123    0.04706191409220    3.62243197735066
C        -1.83410335200993    0.94120588586237    5.50786027426034
H        -2.27429266563547    0.79424903959833    6.49308779167651
H        -1.14502371193120    0.12344536053243    5.31348248508170
H        -2.63844410478806    0.89246725155912    4.77492926212418
C        -0.28920944219945    2.59445417235665    8.84865755923981
H        -0.59229870764528    2.09642924579955    9.76985893568231
H        -1.16317361603929    3.08212535835475    8.43108517820881
H         0.44051020485132    3.35583274149389    9.11171142942701
C         0.34537383169221   -2.78584729977912    6.91208872893265
C         0.81856883774135   -2.77941479353131    8.36887171760798
H         1.90438327779204   -2.83099527821232    8.41690086604859
H         0.40428790198567   -3.63638411147492    8.89350256971346
H         0.49321291666760   -1.87140006896647    8.87100696023297
C        -1.17803272207218   -2.64721749547402    6.83340558755245
H        -1.50808455092034   -1.74920615838275    7.35133947859857
H        -1.65145522963325   -3.50997813205237    7.29448167671301
H        -1.49497468149665   -2.58605882802624    5.79490767381387
C         0.80046397528068   -4.06475421440329    6.20239259833126
H         0.46346586703336   -4.06015225477619    5.16848687424479
H         0.37941995852405   -4.93250826806282    6.70339312921314
H         1.88533572439355   -4.14283332403331    6.21755456076409

