56
CSD_code = VULWII | q = 0 | S = 0 | Stoichiometry = C23H29CrN3 | MND = 5
Cr        6.38289507965224    3.28855349689430    7.71626360971546
N         6.37660379266177    1.41196072363852    6.54852052393662
N         6.35599988170424    5.16499310739876    8.88382210264195
N         4.55583616761150    3.29440920830241    7.69102629857716
C         7.32087660455753    2.02579890667849    8.97661525810504
C         8.22321395453647    2.16907860892980   10.03082311387785
C         8.48315508383838    1.15575462041904   10.94013976028075
C         7.84179941260503   -0.06529479276704   10.82195852622992
C         6.99518880785429   -0.27706272479268    9.74706216829711
C         6.75622410358429    0.74353381208337    8.84032486215601
C         5.94343141005373    0.47892577368250    7.59630850787635
C         7.69307887073043    0.99478108761981    6.07437672330438
C         5.45985640550212    1.36561808746257    5.41717038720539
C         7.36878452212627    4.54461907674061    6.48538063423095
C         8.30387424613858    4.39378408944779    5.46119046173115
C         8.60704005607505    5.40711684490466    4.56532722484383
C         7.97781119205958    6.63584411080394    4.66716469845538
C         7.09760712305445    6.85413456197887    5.71344149378633
C         6.81513949174378    5.83316586680294    6.60705355468811
C         5.96371376794439    6.10241051299979    7.82383070007310
C         7.66065987835184    5.57038442147224    9.39912370363694
C         5.40496311566280    5.21873881927162    9.98619481980452
C         3.83868173902753    3.88666078593317    6.68981440034775
C         2.46894782847586    3.90956337871325    6.64088167600130
C         1.72168579487680    3.29963812361902    7.65105551663204
C         2.43789762901689    2.68742792535571    8.68214093701807
C         3.80850047332298    2.70550484904044    8.67198860939890
H         8.77001555853838    3.09737143709782   10.14258935809429
H         9.18663174634240    1.31874561999899   11.74601192880656
H         8.02309469170256   -0.85356281274806   11.53839647091852
H         6.52922451120139   -1.24509163500752    9.60756652941986
H         6.06814254750935   -0.56648425421783    7.26806817168127
H         4.87495303198875    0.63587753722471    7.78236582350061
H         7.67574280447090   -0.04758597080790    5.72707450626903
H         7.99328466379947    1.62707067002672    5.24444880798629
H         8.42040375876928    1.08750555280570    6.87911075636886
H         5.45755197629429    0.37536510619295    4.94174264367399
H         4.44566314073570    1.59415039818530    5.73879236773767
H         5.76593016352530    2.10678708705837    4.68074480915229
H         8.84215099296066    3.45895623690327    5.36361114707967
H         9.33514232090010    5.23813481159766    3.78288888613039
H         8.19352200643889    7.42461675448756    3.96091182292548
H         6.63935923537620    7.82746139438367    5.84101825409261
H         6.08481016462823    7.14649113619783    8.15754138464057
H         4.90087873031465    5.95288610332982    7.60268185572354
H         7.64194450727268    6.61307033979091    9.74534047176912
H         7.92863238869627    4.93583938799507   10.23829747862484
H         8.41216531970317    5.47051674327654    8.61780526731916
H         4.39902450109010    5.00100081672719    9.63276345707435
H         5.68055958821548    4.47335971821777   10.73038274030265
H         5.39777304378961    6.20821230036416   10.46318625309426
H         4.43581759558596    4.33224036996158    5.90178498727036
H         1.97682014253161    4.39780329023298    5.81267884594633
H         0.64521387973050    3.30141163437596    7.63576320545453
H         1.92087596013151    2.20119066419138    9.49623216301878
H         4.38140459498612    2.25801627952621    9.47669933306667

