37
CSD_code = VUMCIP | q = 0 | S = 0 | Stoichiometry = C14H18Cl2N2Ni | MND = 4
Ni        2.44627969754637    5.83873944158961    3.42489426951759
Cl        3.35731831636593    4.36374959050329    2.19674479538212
N         1.25161835603671    4.50943393006388    4.13536956487814
C         0.07581676225611    4.27924194411893    3.54340042209312
C        -0.81078058158365    3.33256331869811    4.03893638898620
C        -0.47420960045554    2.60941218798487    5.16770483328635
C         0.74666686334903    2.85645915339121    5.76660970213977
C         1.59232866966528    3.81565012199363    5.22553660981794
C        -0.24664247154127    5.07751088061305    2.32670843636522
C         2.91855637120008    4.11056166110673    5.83846245791892
H        -1.75226350272170    3.17287067006074    3.53781614180280
H        -1.14862089329840    1.86961132124102    5.57175772472539
H         1.05194793907131    2.31567964865375    6.64829373733176
H        -0.20235929491603    6.13990399231266    2.57603758133707
H        -1.23557215879395    4.84004862219923    1.94515787639617
H         0.49601596223120    4.86331606846159    1.55534418299880
H         3.70307012916867    3.88415802206215    5.11313575235831
H         3.08237148868164    3.52135571933363    6.73628364064199
H         2.96516864590692    5.17180606697458    6.09139377754154
Cl        1.53612255090749    7.31379258690019    4.65366162691486
N         3.64190910731388    7.16705463805420    2.71399912699205
C         4.81759060524351    7.39741675967162    3.30619279690624
C         3.30119344673461    7.86098131481361    1.62395050782873
C         5.70412591360386    8.34427890491204    2.81085721925591
C         5.13988483564924    6.59936023510063    4.52310299330996
C         4.14677254200196    8.82033223273196    1.08308604361593
C         1.97495724504597    7.56614347465962    1.01104389104184
C         5.36763166301079    9.06736761207633    1.68202589657316
H         6.64557776199245    8.50400787782742    3.31204742765858
H         5.09577479394745    5.53690996620528    4.27381033265569
H         6.12875620628149    6.83692330641954    4.90475489473152
H         4.39713682979312    6.81358980038676    5.29439411513253
H         3.84155888484552    9.36105551279969    0.20135873917475
H         1.19042603955505    7.79246947066266    1.73633931396166
H         1.81114965155213    8.15536254748030    0.11324415544865
H         1.92836600679211    6.50491100428000    0.75814425564812
H         6.04205521756037    9.80717039365580    1.27799876763057

