72
CSD_code = VUMKEV | q = 0 | S = 0 | Stoichiometry = C27H43PTi | MND = 12
C         6.14552074751397   10.42556356690058    3.60932714882973
C         6.76055620948400   11.01309091925925    4.73819746601860
H         7.79228781468649   11.33373770588769    4.78867035965986
C         5.87028030429968   10.95567631333371    5.82561153337000
H         6.09672433919205   11.22329574089627    6.85108598452246
C         4.69735151798144   10.31179450121369    5.38890305317064
H         3.88335372882623    9.97875222998475    6.02014971104847
C         4.85666200206540    9.99700770764862    4.02128444548739
H         4.16378597291143    9.39833756791654    3.44483217597001
C         6.67899755363298   13.89823237059266    4.02077282760117
H         7.67375406620056   13.67165047111353    3.66204815860603
C         6.28127005678245   13.94266886338438    5.36891777481103
H         6.91409881528867   13.73364391635793    6.22195018352277
C         4.97651424071721   14.45917032081016    5.42357702805881
H         4.43276113534504   14.71483447749647    6.32387055414666
C         4.56815481458773   14.74766765019946    4.10558127709731
H         3.66002280637442   15.26308788489549    3.82025411826050
C         5.62093479295913   14.39381137656915    3.23653740190402
H         5.66315416517483   14.61229426615279    2.17626589606309
C         6.88413165653137   10.04631703427769    2.34959653978413
C         5.97652330117891    9.33401818269921    1.35138956750200
H         6.52856485288838    9.05351200277586    0.45744598896105
H         5.54843967817331    8.43443235438220    1.78591644918229
H         5.16033768211723    9.99227865577492    1.05419424669766
C         7.50657442889605   11.29971432794304    1.71786030396173
H         7.87448732559247   11.09874577601278    0.71530376285873
H         6.76431737423169   12.09874779373216    1.65399679143552
H         8.34617428467605   11.64997890969249    2.31694919435500
C         7.35510482511473    7.67914917174543    3.99314171197630
H         6.42650101078316    8.19640950115820    4.26218764401917
C         8.10434061731590    7.40928541969924    5.30157402407295
H         9.02954085539071    6.86323119649680    5.10168719893303
H         8.37427100128982    8.36186876681177    5.76424433499099
C         7.23169919038852    6.60111823441383    6.25653545549598
H         7.77636047867838    6.39998024742965    7.18167753521711
H         6.34385710670045    7.18608479771327    6.50937974251663
C         6.80533767971863    5.28871218989619    5.60635547590267
H         7.68966170045459    4.67685964579274    5.41101735384775
H         6.15557087976070    4.72917393890350    6.28293992065333
C         6.07881928266516    5.56014729552877    4.29300598322813
H         5.16671995129409    6.12738606848752    4.49576025198451
H         5.78917186532153    4.61554796870233    3.82572367913567
C         6.96935049591022    6.35486839555055    3.33764874869173
H         7.85518356173380    5.75918448458684    3.11208605746471
H         6.42834485003116    6.52245152296036    2.40458396257313
C         8.97250479859503    7.94707992364853    1.55970168334291
H         8.19186270210274    7.27292358038748    1.19403291496975
C        10.14986677619825    7.13312138683296    2.10764586162817
H        10.91170751248016    7.82624202544477    2.47586437083638
H         9.83371010277065    6.52037612948189    2.95308349095318
C        10.75726462844535    6.24278603948014    1.02883632422110
H        11.58548953904451    5.66584854876207    1.44670707912825
H        10.00306854950057    5.53599031852499    0.67287274772384
C        11.24691403369160    7.09249809247086   -0.13803972036668
H        11.65801116530564    6.45451021437038   -0.92340619751373
H        12.04325761320351    7.75605557991118    0.20671330992885
C        10.09666469609793    7.92586382623810   -0.69027866148677
H         9.32968913339392    7.25858030545661   -1.09256719115138
H        10.45140775155383    8.55670863950164   -1.50874402152989
C         9.47815548311455    8.80154438321832    0.39877907576258
H         8.66196734227650    9.37185675263026   -0.04432318783565
H        10.22430655558881    9.50973866007547    0.76779461244322
C         2.90030055039484   12.42489571311469    5.09762767663514
H         2.28908721885671   11.55322000287742    4.83930810264168
H         2.33230824909822   13.31085410390675    4.79740207701069
H         2.99782198606890   12.45219946221416    6.19086988150494
C         3.82078813277065   12.25401620063644    2.38602915921080
H         4.52885090519676   12.20714058218845    1.54898330622424
H         3.18878927523522   13.13355085509997    2.21590481756769
H         3.16574366008585   11.37946306354075    2.30509165894170
P         8.34216448030035    8.96857026177036    3.01812384112230
Ti        4.81822613776969   12.37464361447799    4.23094796450055

