104
CSD_code = VUMKAQ | q = 1 | S = 0 | Stoichiometry = C55H42CuN4P2(1+) | MND = 4
C        -6.26446502876365    7.96594559895447   -1.32561706303625
H        -7.00167509748366    8.43089742583473   -1.96190373863345
C        -5.31690546339238    8.74554409856951   -0.68188271525188
H        -5.31705792817672    9.81659621637468   -0.81709219561435
C        -4.36906618550186    8.15897291323438    0.13475834364774
H        -3.64150272333388    8.78855565708526    0.62705898229893
C        -4.36098857620868    6.77502822903280    0.31652351708863
C        -5.32054086934695    5.99683893873797   -0.33604461141980
H        -5.30159136031588    4.92952688932310   -0.18534778207154
C        -6.26342010634886    6.59054269813243   -1.15031383477201
H        -7.00108847505847    5.98235549951123   -1.65099962700219
C        -3.39221659317159    6.10924685033002    1.16032065710900
C        -1.68708370433679    5.79478775064104    2.51847227188354
C        -2.32389119621275    4.58595527358039    2.20721076875403
C        -1.86047710264304    3.35225379316250    2.74180117185451
C        -2.44129865967224    2.10745066383247    2.47093471754404
H        -3.30008916479677    2.06548884023521    1.81985192352495
C        -1.89507522165396    0.97989698540898    3.04229150089074
H        -2.31009077746626    0.00200058023688    2.85882217966759
C        -0.77832180835674    1.11663827081964    3.86719774852114
H        -0.31365745766883    0.25287044034608    4.32522747099959
C        -0.56313229751583    5.87313778939921    3.37400498996966
C        -0.73618104829159    3.39861798680505    3.59653930463882
C        -0.09391865519206    4.64822488985182    3.91685664542255
C         0.11577482430768    7.04874473004179    3.72839691465459
H        -0.20813968481158    8.00186271013131    3.33731562361504
C         1.19439780719385    6.97189923497633    4.58021476245826
H         1.73645397256461    7.85628266604668    4.87366289062942
C         1.57883544504780    5.72422316474727    5.07067966530715
H         2.41559898482647    5.62469064112639    5.74943670265689
C        -0.42939372901609    3.06874908262221    8.27339589929402
C        -1.33037469600799    2.53775491726784    9.19027787222403
H        -1.32380299140806    1.47995569785376    9.41297205382150
C        -2.24463603241901    3.36811468284749    9.81401053613102
H        -2.94207866193123    2.95441571812377   10.52697851344407
C        -2.26737685470264    4.72392531836394    9.53050927784952
H        -2.98339578279468    5.36532911078504   10.02132600832363
C        -1.37225552431361    5.25596099477164    8.61623656255629
H        -1.38894065870628    6.31278158756722    8.39357493308090
C        -0.45791909076734    4.43099556725692    7.98928593757233
H         0.24635734177528    4.83193869679122    7.27207453922180
C         2.23960930554150    2.25455361036611    8.59556689090487
C         2.07176455915459    2.08894343374722    9.96766076616484
H         1.09647949853641    1.84960510995529   10.36755145740060
C         3.15712536405088    2.23205212627071   10.81137142962713
H         3.03012468619982    2.10060210872190   11.87544142438436
C         4.40639065500403    2.54632875919397   10.29686434093307
H         5.24859838119855    2.65827509027811   10.96260255101778
C         4.57365236035754    2.72079799093905    8.93305847152188
H         5.54309438877943    2.97301913678122    8.52986151670477
C         3.49110877891419    2.57626972526007    8.08491141968945
H         3.60227526614424    2.71229907057600    7.01432203110974
C         1.06526269773249   -0.60058549467218    8.25705719691632
H         2.03927465752486   -0.34986697545199    8.65390185510690
C         0.27922522044166    0.38465030721248    7.66941720422415
C        -0.96735788634746    0.05067186600369    7.14148047247716
H        -1.56912019132740    0.82242740836877    6.67745450425042
C        -1.43227617184096   -1.24744809882942    7.22604717469968
H        -2.40285929956104   -1.50013535273010    6.82562442940426
C        -0.65225248306046   -2.22423859935400    7.82651287447849
H        -1.01595286780079   -3.23807736858566    7.89430248583198
C         0.59287479240243   -1.89920127118594    8.33862584149315
H         1.19885769803515   -2.66059872303126    8.80701485706031
C         4.02766649266525    0.57164651062800    4.60486419319587
C         3.35242687391461   -0.19073678726848    5.55000227067808
H         2.48740335295643    0.23464252400718    6.04782188866529
C         3.78059112882542   -1.47194686786786    5.84577971806503
H         3.25025393756518   -2.06056527671568    6.57943866994064
C         4.88498785584083   -1.99537444027897    5.19400906705723
H         5.22211383323395   -2.99521144815997    5.42146034772836
C         5.55760533478636   -1.23978483678869    4.24485508696633
H         6.41576421617748   -1.65294298718667    3.73643791817748
C         5.13193525621283    0.04027700953115    3.94409361855318
H         5.65083373305368    0.62920633930052    3.20069263388146
C         4.80699072403510    3.32752040042729    4.64953911625311
C         5.86632392210046    2.92584202581731    5.45590707696898
H         5.91312283085637    1.90882651552816    5.81974240483016
C         6.86229044180986    3.82954077183788    5.78389612128581
H         7.69115192170763    3.51238538256422    6.39929367548625
C         6.80244181320801    5.13451326748880    5.32393920948079
H         7.58280752012885    5.83419716993251    5.58123603039137
C         5.73938868315621    5.54303325898327    4.53275455986040
H         5.69149277051100    6.56067963801424    4.17428389565775
C         4.74212432574898    4.64637684190487    4.20157292847960
H         3.90888523490791    4.95315803801743    3.58124029641389
C         3.42007074337532    2.22875495446188    2.42402373417470
C         2.29390717276085    1.69475474006744    1.80374027808279
H         1.47549238267787    1.34013224586723    2.41622129815430
C         2.22620501201728    1.61528795379953    0.42598746160372
H         1.34949644791446    1.20004504579370   -0.04881709003094
C         3.28538221535894    2.07024243121997   -0.34325645833195
H         3.23555412391483    2.01098461686095   -1.41979518213711
C         4.40904562024422    2.60022676205919    0.26946294583600
H         5.23606630276984    2.95035511068738   -0.33013742064205
C         4.48196696641516    2.68217088162454    1.64893909932425
H         5.36175327671620    3.10030607080062    2.11754439410007
N        -0.22388525784805    2.28036764475874    4.13233595439478
N         0.95581756409228    4.61112348760015    4.74748454009949
N        -3.36447796133149    4.81110260154268    1.37280458195066
N        -2.38713760141950    6.74895226066088    1.83955232763048
H        -2.20398472541425    7.73809034621405    1.83191560501395
P         3.40235468423928    2.24355972670416    4.24894992818065
P         0.85581049565763    2.09170022733032    7.42352319367340
Cu        1.41599175643355    2.67741718161027    5.29348956666194

