77
CSD_code = VUMKIZ | q = 0 | S = 0 | Stoichiometry = C31H42ClOPTi | MND = 12
Ti        3.14389806894591   14.50420180864846    5.27445226423731
Cl        0.95043059673132   14.63091464220866    5.86229547207055
P         6.36826374366456   10.83113870886401    4.34612838628291
O         2.78541431781029   14.44699970753669    3.59679409001365
C         2.26478076225854   15.07441602551018    2.54885587866006
C         4.28762172178545   12.47810927288088    4.88425071773672
C         6.96305634055899    9.82723615089087    2.86276330487257
H         6.13368571398670    9.26787925119026    2.41919797368805
C         5.20308442277508    9.60905984384194    5.20250184197561
H         4.32607020728755   10.21129585094468    5.46747328430610
C         2.94118599388065   12.15676610268916    5.20037857058414
H         2.22729719666912   11.65092239433772    4.56120152903839
C         1.02588624521583   15.72400654025992    2.64467843470343
H         0.48998572985703   15.68874044464159    3.58337202202697
C         2.94136618595158   15.09367522348514    1.32122889270106
H         3.89287788416302   14.58836480725930    1.23404788220171
C         8.01263596470154    8.85650672519254    3.41507114859303
H         8.82334040187520    9.43744101599918    3.86407695955090
H         7.58498095626848    8.23441155457191    4.20252844535178
C         7.62114267064551   10.68513778178083    1.78347989416996
H         6.89634873279736   11.36650205879370    1.33842423462808
H         8.41810016817430   11.28369813132056    2.23181841540158
C         5.85545411832751   13.31163243367027    3.15946067813474
H         6.68332121288380   13.53454553787451    3.83174883916552
H         5.19375199025232   14.18117062465031    3.11621500236269
H         6.26932116309621   13.14112212352250    2.16907010903645
C         5.07123069544197   12.08859656910251    3.65868535254830
C         5.02241622580038   15.98768792830499    5.38650699888059
H         6.04625061951641   15.77285180116606    5.11100242079002
C         9.22180373971946    8.82347759337801    1.22723691163147
H        10.06506598422238    9.37347242083895    1.65131639940749
H         9.60417761630987    8.18976909286815    0.42422332891980
C         4.15203109565803   11.55066468937310    2.56573041300267
H         4.71121074961255   11.31630193147939    1.66302902937279
H         3.39881119784208   12.30160461365065    2.32018799937145
H         3.63979716062652   10.65008725521806    2.89474456602239
C         0.49680233186236   16.37501298509448    1.54796031040895
H        -0.45910486989921   16.86998564992945    1.63657122366485
C         4.86111133023237   13.03890235453311    6.05507523343551
H         5.91038709002033   13.26826869564400    6.18214242400251
C         4.70377561790536    8.37648506473979    4.45164958212767
H         4.22807606698684    8.65669312931992    3.51009764497226
H         5.52806806247941    7.69868045274133    4.22476732959570
C         8.57962413380051    7.96793787299589    2.31294366635166
H         7.77500503787398    7.37013502119965    1.87701076297468
H         9.31669051596113    7.28048245147222    2.73398604279613
C         1.17878908084220   16.39925953419039    0.34157732055228
H         0.76048431644969   16.91352201766828   -0.51010542873591
C         2.39906178330316   15.75365421900351    0.23548536256334
H         2.93622501712519   15.76211651568124   -0.70178554262563
C         3.89354657161923   13.03224065388583    7.08154446352655
H         4.06005077460600   13.28769345838137    8.11999723930764
C         2.71570891797133   12.48450340221821    6.55891438805430
H         1.81342519075467   12.26487729459510    7.11475141314259
C         8.20055374826381    9.80964889546028    0.67299800058514
H         7.38950456617488    9.25584604323338    0.19265366892940
H         8.66636032352506   10.44273191968957   -0.08580459505339
C         4.07322285789856   16.63324392553031    4.56575565590081
H         4.22276631282938   16.93876679662620    3.53696787966478
C         2.93459695837380   16.89544961534195    5.34532402518536
H         2.05497291897765   17.43828657140942    5.02546136651429
C         5.85823169011411    9.18238242293422    6.51985604264345
H         6.72495548649797    8.54682995351921    6.32294321100841
H         6.21158437410794   10.06997177337710    7.05074208688098
C         4.85838942167213    8.42529852292198    7.38824996301904
H         5.33489952320036    8.11130184394847    8.31946163056211
H         4.03018236051519    9.09134948342041    7.64258738676065
C         4.48826261959069   15.91336360326553    6.69450084969863
H         5.03532739147734   15.62002318309971    7.58076826626563
C         3.68811141412721    7.63436317578254    5.32045237010798
H         2.83524445444967    8.28765010496710    5.52101711325030
H         3.31896912815262    6.75634359999409    4.78484350186301
C         3.19448201005654   16.44892553119924    6.66531023812084
H         2.54683806857517   16.60664003657306    7.51831826996443
C         4.31927887933995    7.20887817429955    6.64224479932174
H         5.13807417758804    6.51243357118259    6.44479036022041
H         3.58096674927609    6.68991182108552    7.25719678094613

