76
CSD_code = VUMLAS | q = 1 | S = 0 | Stoichiometry = C31H42OPTi(1+) | MND = 12
C         1.09932283428426    2.36838998481278   12.35074209729038
C         0.38635809981244    1.28144480319184   11.79458683102844
H        -0.28190019927447    0.60572155395100   12.31226311052181
C         0.76562473495844    1.15052598491421   10.44063676833760
H         0.48455905910277    0.33430760430950    9.78744794211879
C         1.78027196111327    2.09715861180052   10.17881510465439
H         2.37795139448064    2.14770169546944    9.27955653574099
C         1.95843594408383    2.87389014991652   11.32705445147239
H         2.75116773542386    3.59485343255884   11.45735827916773
C        -1.62537840997279    4.88685308687624    9.58283418684907
H        -2.52890283517339    5.37720764234990    9.92150822968867
C        -1.56460314946227    3.71560940043713    8.81284679468782
H        -2.41644084945405    3.15656064535429    8.44678035466511
C        -0.20813492854617    3.48890689891180    8.46558473652706
H         0.13801643341999    2.74611379542682    7.75785422237123
C         0.56294670367329    4.53832925849592    9.00700825435795
H         1.60664056489169    4.73510097385559    8.79725652313321
C        -0.30517878383813    5.38482839389148    9.72522536697747
H        -0.05058143062292    6.35780679319884   10.12265059955533
C         0.81664864931286    3.05310950327208   13.67100355476559
C        -0.13399148305133    2.18819416498366   14.50491500031809
H        -1.06660971051394    1.98377783833844   13.97880695658248
H        -0.35421565988313    2.65551043882505   15.46160933140903
H         0.35031166088237    1.23380541688198   14.70954127001995
C         2.07281045339641    3.31163424566736   14.50399094390735
H         2.46549252215914    2.35866602750258   14.85564719273204
H         1.84102708301085    3.91938978195026   15.37620520690420
H         2.86142080120471    3.79781866240983   13.93967207473786
C        -1.58363364803825    4.85561254389960   14.02315531393120
H        -1.95874640228579    3.83640453489300   14.17002992701745
C        -1.32142874505344    5.45377365624202   15.40757914199533
H        -0.55529334851313    4.87754875202112   15.93086999437694
H        -0.97228514866867    6.48290035431664   15.33639094108667
C        -2.61948304789846    5.44414526163967   16.21511050540824
H        -2.43892428075767    5.88058103012480   17.19838495396011
H        -2.95615545605723    4.41562775768266   16.36349575166829
C        -3.70076163267070    6.23434936048872   15.48433010052291
H        -4.61968096619917    6.23190025460741   16.07098493612861
H        -3.38151184469017    7.27258711477514   15.37182750385294
C        -3.96788169036845    5.62802820968744   14.10964771603380
H        -4.73410914315483    6.20460518902661   13.58962550190013
H        -4.34963678155327    4.61271218363570   14.23811519845786
C        -2.68991807951143    5.60300204760037   13.26936931017586
H        -2.39962584495028    6.62973118527261   13.04699657535174
H        -2.87631095757936    5.09049490846095   12.31800038559557
C         1.01987554291223    6.12779406805078   13.29691344885480
H         1.29651396674456    6.08766077300477   14.35761041070677
C         0.24191733964576    7.42115049762228   13.02334860681100
H        -0.07057960512363    7.44923265582551   11.97637954859219
H        -0.65279596293267    7.47874545096296   13.63900745055528
C         1.09924298078083    8.65124536580209   13.32166821635665
H         0.51495247401968    9.55125584009429   13.12463478202230
H         1.37202454213955    8.65571039842307   14.37919875099663
C         2.36342263190363    8.64943366396664   12.47346172060669
H         2.97644286741487    9.51782141532876   12.71446990415688
H         2.09886553415966    8.71114448547903   11.41551050478378
C         3.14542613844890    7.36987519071453   12.73600607591782
H         3.46443247453305    7.34795099009633   13.78037741200333
H         4.04155810040157    7.34200582523277   12.11423550230375
C         2.29075546243404    6.13596099758019   12.44287350457119
H         2.01876204035906    6.12779935046294   11.38212403366369
H         2.90015305889721    5.25777906550932   12.64789944786637
C        -2.78570691924171    1.91975676737524   11.42097733195303
C        -3.81550855181019    1.96506924942433   12.36602730731225
H        -3.79772124111212    2.73328815505949   13.12447491036828
C        -4.84348157322032    1.04287761608508   12.31907753056132
H        -5.63322596065849    1.09108953612023   13.05284197553411
C        -4.86509884070109    0.06343253640926   11.33976729241394
H        -5.67016713965070   -0.65290810983218   11.30710370766573
C        -3.84741223260533    0.00959015371870   10.40012657263480
H        -3.85964061354916   -0.75124914485950    9.63446907225099
C        -2.81308568067726    0.92464175627026   10.43308430363961
H        -2.01250130446005    0.89134605548589    9.69956825441592
O        -1.78185537508425    2.79148464456659   11.44629413550006
P        -0.06292592035408    4.62211333510446   12.95647252068775
Ti       -0.29862041107811    3.27528028098869   10.77408008630542

