56
CSD_code = VUMMEW | q = 0 | S = 0 | Stoichiometry = C22H25Cl2N2O3SV | MND = 6
V         3.65415913523337    7.20229022176787    0.22890350672904
Cl        2.08442599521742    8.19747776775747   -1.16098306030932
Cl        5.05726303313615    6.11211137032430    1.79462542183069
N         3.23642227701425    9.64922522132600    3.21254223110903
N         3.94857093781374    8.82681799242557    1.12785852940545
O         4.93867360719935    7.49905620186930   -0.65340080267845
O         3.20789356640655    5.17954431936598   -0.79896329975630
O         2.15843654867050    6.57695013196874    1.38436670274049
S         1.31017110688922    9.41392505358308    1.48174544453930
C         0.93621639778307   10.00752252614887    3.07412701286704
C        -0.28862011046937   10.38896408851826    3.59846056695803
H        -1.17898741610778   10.34958698452123    2.99070508846740
C        -0.33454070114581   10.81881807912798    4.90989510882746
H        -1.27916462423735   11.11945636318135    5.33726004212956
C         0.81967391325455   10.87167701468413    5.69053912117128
H         0.75084760716179   11.21438275287010    6.71193957258334
C         2.04300641887092   10.49539631645536    5.17968051565784
H         2.94333853699823   10.53173222839164    5.77132078706969
C         2.11014365805914   10.05792627480625    3.85935956432446
C         2.99592076547660    9.26891692047072    2.00870187994014
C         5.07009809042711    9.51858269188953    1.10063383264767
H         5.15548448668633   10.37181112175602    1.77004281205127
C         6.14893400888633    9.24175033338664    0.22681657738175
C         6.03633994374753    8.16993939961000   -0.71491775734903
C         7.08545609977292    7.90866280521633   -1.60450809430151
H         6.98165951158786    7.09801496895903   -2.31225659484829
C         8.23025858961264    8.67513104458513   -1.56804490564978
H         9.03752628293457    8.46334245125802   -2.25215562927316
C         8.35085388450088    9.72078172126056   -0.65258391534533
H         9.25354627753421   10.31214066472730   -0.63572587685386
C         7.33014456468479   10.00271371072401    0.22387024234155
H         7.42324709333557   10.81278660207408    0.93185742236917
C         0.92878486205485    6.05121051735977    0.90809177643076
H         1.05009654984638    4.97297854289689    0.71994904133936
H         0.67911971818278    6.56482634392740   -0.02357762269629
C        -0.08823838779261    6.29452765832922    2.02938763596503
H        -0.83124654703887    5.50072568117767    2.06846665049690
H        -0.60344876038690    7.24155714294088    1.87217069308846
C         0.78233704576117    6.34939398595459    3.29500123714885
H         0.55130552337157    5.54534890588472    3.99065425499076
H         0.65304028180505    7.29670651895060    3.81798878810568
C         2.21403551804424    6.21109243393530    2.75731222563546
H         2.93263258923138    6.85662235209580    3.26660927390627
H         2.56697238577233    5.17291599313686    2.83311144197244
C         4.15237208074353    4.13391232736387   -0.61951911966342
H         3.63552160113225    3.16864980220532   -0.74150127411456
H         4.57151680877688    4.21507577730509    0.38420861502919
C         5.18998697485516    4.33801305683851   -1.73117438988882
H         5.59890063797400    3.39045832846599   -2.07636651136798
H         6.00674017463482    4.95504550319561   -1.35501875212271
C         4.39204180108303    5.07401033284021   -2.82500045823794
H         4.80953101921229    6.06267207565217   -3.02016831908843
H         4.35726584348487    4.52078797575673   -3.76166073650527
C         2.99575009487172    5.21378517999627   -2.20259604909595
H         2.49035505763459    6.14669918594968   -2.45403865656176
H         2.36042763980261    4.35834903282702   -2.48204179154806

