67
CSD_code = VUMMEV | q = 0 | S = 0 | Stoichiometry = C24H35NO4P2Pd | MND = 4
Pd        0.41286533605699    3.93089084198880    1.88287282661257
P         1.56980919518239    5.04467431906680    3.47284313652714
P        -0.66080916562687    2.74458019716750    0.29957460518799
O        -1.53479134203590    3.66666243200680    3.76563395107539
O        -3.34175128209942    4.71521310102216    2.88780927996553
O        -2.61564969970923    7.47389282833507    3.54046107544605
O        -3.05545718850589    8.05535874849881    1.41068419046376
N        -0.46197597735421    7.06726945900688    0.78662875764754
C         1.86733512936958    2.51013557968944    1.90477392730764
C         3.00999440284221    2.48781872480631    1.10910692299354
C         3.91853835677678    1.44322062879966    1.19578488484638
C         3.69817247436825    0.40046446712853    2.07898657141487
C         2.56548632769372    0.40453830817563    2.87700456591242
C         1.66007780790182    1.44972702165490    2.78879017154960
C        -1.18029085873363    5.25423245611934    2.09599817825378
C        -1.30268056904467    6.55346385242839    1.76805785022667
C        -2.00679385503759    4.51548868751598    3.00879470591775
C        -4.18341752290645    3.98511472214431    3.76223538466207
C        -2.36023072149418    7.40831583716529    2.36147893000281
C        -4.12730213657511    8.86285073415138    1.86663977105943
C         0.01942781523755    8.34882603878599    0.64972834770780
C        -0.25808125272151    9.37504689828394    1.55566659977908
C         0.24142042186259   10.64582551777002    1.34526166546937
C         1.03397185550585   10.92313722383307    0.24445592230317
C         1.33682942315307    9.90471742656574   -0.64574170990236
C         0.84083251981071    8.63367408112211   -0.44704513457714
C         1.00221267481833    6.68203678527872    4.06752728506218
C         3.35066011618920    5.37867410396661    3.18683777555975
C         1.60436976552813    4.08955553584016    5.02917634184051
C        -2.08452292331738    3.52264030779004   -0.55789510652349
C        -1.43760692893578    1.26496079232462    1.04261556539909
C         0.25144284137163    2.01120923373352   -1.11168855770822
H         0.06465495328400    6.33438813973158    0.30532864967083
H         3.19627157779038    3.29841190956598    0.40873553418903
H         4.80231208234439    1.44255094631446    0.57112069452750
H         4.40684598129472   -0.41324257913528    2.14574259287576
H         2.39095316010414   -0.40996603282912    3.56797863979097
H         0.77036566873126    1.45308804690169    3.42086016583286
H        -5.08602009900405    3.72711858488601    3.20919408658498
H        -3.66996326335872    3.08431089755796    4.10730667102094
H        -4.43756520689164    4.60734648201531    4.62315080112892
H        -4.68631725433845    9.15850117234983    0.98256323110045
H        -4.75999428991773    8.29776723668127    2.55438343013603
H        -3.74281644155946    9.74515747986234    2.38424394908752
H        -0.84649271923767    9.17564291441828    2.43780763863083
H         0.01602368194342   11.42668123613481    2.05741128248622
H         1.42016767058924   11.91855959966691    0.08699039120360
H         1.96603317876078   10.10410982093448   -1.50124787088706
H         1.08317582235643    7.84019596260334   -1.14068131526682
H         1.60460091976073    6.99273811306429    4.92132792772025
H         1.09963399159033    7.41934224960191    3.27118612262877
H        -0.04478823023676    6.62095839356898    4.36133069649243
H         3.79287657799515    5.84585066857880    4.06594231410041
H         3.85983178873193    4.44074158128604    2.97204667279831
H         3.46079908349225    6.04238232720556    2.33032613967023
H         2.17023358475041    3.17194895100361    4.87246949953318
H         0.57723989226652    3.83184839107531    5.28628340144475
H         2.05585458682936    4.67406371424459    5.83046314022218
H        -2.57063400066634    2.80641209196225   -1.22059342523197
H        -2.79613208148920    3.88090994228909    0.18505386240892
H        -1.73754773764750    4.37772492004805   -1.13758328814616
H        -0.65227003239860    0.57401743816695    1.34801376756148
H        -2.10751744176128    0.77756659842860    0.33443666700020
H        -1.99297841902554    1.57188695509854    1.92887131254058
H        -0.41534732535436    1.39637542636678   -1.71528830318317
H         0.66859241220336    2.80690054858219   -1.72699067481375
H         1.06933288851096    1.40349297957947   -0.72794308633771

