56
CSD_code = VUMNUN | q = 0 | S = 0 | Stoichiometry = C31H22N2Pt | MND = 4
Pt        0.35096375199214    1.19517777271372    3.97249600509787
N         1.62428412194105    1.81814011179055    5.54826605842266
N        -0.07259641157167   -0.12335395724992    5.31653058647595
C         0.79374261688611    2.54470516894525    2.62842647384491
C         1.12959700640169    3.42874775831393    1.86131413909343
C         1.50712980121935    4.43982168973400    0.94592442433326
C         1.68010330244117    5.75887834627028    1.37230948921802
H         1.51519806717061    6.00359089720146    2.41249961284623
C         2.04725904679561    6.73978826217628    0.47226620768709
H         2.17514351988309    7.75907199540163    0.81006754237382
C         2.25193143284867    6.42373245504626   -0.86152043426354
H         2.53913059465633    7.19384542527597   -1.56301327947397
C         2.08623103928516    5.11661563356136   -1.29249510333744
H         2.24532302613308    4.86854788324744   -2.33273113439187
C         1.71612133752914    4.13003122285533   -0.40045742338667
H         1.58601362589708    3.10924409711372   -0.73010982383530
C        -0.99607015424187    0.17482485043516    2.90817928975978
C        -1.47793467277859    0.34628661041262    1.61337904765536
H        -1.10938721123787    1.16895465331723    1.01761375490172
C        -2.42376967588266   -0.51461563628133    1.07719337392776
H        -2.78399714488687   -0.35725150587646    0.07041545818085
C        -2.91500162940108   -1.57467613117091    1.82268760470370
H        -3.65090631682673   -2.24304169737055    1.39912935292917
C        -2.46211226671613   -1.77603211159002    3.11224356216013
H        -2.84628353568565   -2.60574996469475    3.68893056102197
C        -1.51335268139280   -0.91632624093671    3.65926421753441
C        -0.98560851405888   -1.06134151337444    5.01569201640819
C        -1.32576209818543   -2.01766668388828    5.96391721683565
H        -2.04452196669392   -2.78615602105408    5.73044671188694
C        -0.71657680068822   -1.99825066172422    7.22055058643395
C         0.23041782376608   -1.00972745026832    7.49097213099446
H         0.69703423787487   -0.96744439380837    8.46162816823743
C         0.53341368199087   -0.07407305123756    6.50788444696286
C         1.49312200277043    1.02817477649811    6.63715755720290
C         2.23616530329768    1.27426860523378    7.79036591785416
H         2.12448903383769    0.63896048277916    8.65423484039547
C         3.11645706847363    2.33979400762164    7.81920786131674
H         3.69821900704837    2.54252243962434    8.70576985278426
C         3.23852479590068    3.14046022033660    6.69130136955335
H         3.91385310205864    3.98037012532630    6.67397554444638
C         2.47116102391703    2.83895469501689    5.57994612966561
H         2.52764719205295    3.42962538519330    4.67471892030873
C        -1.06953115729517   -2.99145834900484    8.24102184469978
C        -2.39116100268345   -3.39590888230628    8.41127399241666
H        -3.16675258743965   -2.96164709292981    7.79729494287744
C        -2.72466449743690   -4.32275364436496    9.37992144979231
H        -3.75756384637234   -4.61630667204781    9.50159107907172
C        -1.75247199564379   -4.88061987957921   10.20003750436353
C        -0.43176071145324   -4.48116111720062   10.02439557626415
H         0.33947748539562   -4.91019941386712   10.64832258616750
C        -0.09329202051482   -3.54881491537259    9.06487117917414
H         0.94233750180693   -3.26976901755575    8.93267398147158
C        -2.10777409917183   -5.87651112004300   11.26001421476625
H        -1.43149997401037   -6.72887584164391   11.22810566353825
H        -3.12765833195506   -6.23150371869450   11.13610485147877
H        -2.02068024703279   -5.42019888641145   12.24639229918352

