58
CSD_code = VUMPAU | q = 0 | S = 0 | Stoichiometry = C18H34Cl2O2SiTi | MND = 8
Ti       -0.70305973186200    0.15229842301156    7.09281620235865
Cl       -2.82769679194820    0.28481988307056    6.61610758008000
Cl       -0.55465691466127    2.22548111373548    7.75651750626578
C         1.18913911346383    0.55155150023522    5.87908728807839
C         1.31487514063093   -0.73174561950657    6.48557466704899
C         0.28840510893486   -1.56777756992334    5.96529892431586
C        -0.47006280437169   -0.80581374083542    5.02889106838938
C         0.08072957258043    0.50649707141381    4.98542549488676
C         2.15454054639064    1.68984462530855    6.03906398863863
C         2.39274474856712   -1.18996098018166    7.42211294704270
C         0.13138843236489   -3.02268863966583    6.29472732711528
C        -1.54728475901015   -1.34321312566349    4.13247479624935
C        -0.38262792079289    1.63061974472735    4.10362030547898
O        -0.66419173294067   -0.72731221708697    8.54947316439993
Si       -0.79077860725492   -1.39540326080821   10.00354824273811
C        -2.60113018487609   -2.05447532662748   10.09960861588489
C        -2.84083655236604   -2.93907978510579   11.32411530948899
C        -3.61580066383338   -0.90890636756391   10.10103797571747
C        -2.82968717923906   -2.88652191765944    8.83142157015495
C        -0.10368838853510   -0.08696768407914   11.24429417436294
C         0.14094581084166   -0.67896961366083   12.63362608659471
C        -1.03357008607749    1.12125028623692   11.37040943920639
C         1.23195649666914    0.40335581598834   10.67149926178543
O         0.25357218527652   -2.67859150840277    9.94611582168118
H         3.02582479300174    1.53092273805322    5.39861208615136
H         1.69321023925434    2.63568301223913    5.76089793777832
H         2.49720398347203    1.77197259420000    7.07093186092456
H         3.09737693220149   -1.83693749271570    6.89446497156058
H         2.94323154568779   -0.34430614131545    7.82966941635569
H         1.95829348743417   -1.75766206977375    8.24564844174808
H         0.91620402160220   -3.60614468380063    5.80771231500433
H         0.21199145084858   -3.17252504488216    7.37213338632092
H        -0.83341309260680   -3.39990204423633    5.96041500897860
H        -1.10157729997946   -1.75685560771107    3.22424127624279
H        -2.11218085540444   -2.13233452075971    4.62801363662362
H        -2.24673254269372   -0.56022756894212    3.84403404338243
H         0.18018462880056    1.64147007497474    3.16709990830890
H        -1.44089744994311    1.52350016095788    3.86439003840392
H        -0.24173929705529    2.59322244938736    4.59773782843469
H        -3.86368634732724   -3.31447451425552   11.32377838733946
H        -2.16755407848892   -3.79396604332126   11.32411994769975
H        -2.68664265150176   -2.38078476276566   12.24457646799643
H        -4.62450943313262   -1.29988181122742    9.96901488980873
H        -3.58736193309026   -0.36100608807348   11.03888149775258
H        -3.40784512842672   -0.21373345555865    9.28710405972928
H        -3.84657691455241   -3.27762830824608    8.81265490174310
H        -2.67829883888738   -2.26470749657690    7.94539705055425
H        -2.13725259189309   -3.72467259904664    8.78706862294318
H         0.55084401763076    0.07913065325419   13.30017694619915
H        -0.78479702588590   -1.04711938824454   13.06965921775203
H         0.84922304013186   -1.50360962990455   12.58509549217646
H        -0.54752258404082    1.91172867040092   11.94221802999765
H        -1.28338990540705    1.51461792152369   10.38514327452653
H        -1.95465376499829    0.85473568231226   11.88182939858033
H         1.66614972296005    1.16438764433283   11.31935548678998
H         1.93961767585191   -0.41821251079378   10.58268591188654
H         1.07544101406229    0.83586259632371    9.67993296558574
H         0.34371034439912   -3.22223352278117   10.72423753678193

