44
CSD_code = VUMQAW | q = 0 | S = 0 | Stoichiometry = C19H21ClIrNO | MND = 8
C         4.00852230076297    1.28813327133948   -1.86938831396317
C         3.46533696634695    0.52616514770118   -0.80578975796413
C         2.76735352215526    1.42996143624384    0.07994071711051
C         2.88030668350292    2.74426303371345   -0.44999380259232
C         3.70786780832725    2.67773613916413   -1.61951294059814
C         4.69622975460614    0.79192513399089   -3.09828395178439
H         5.71696049865114    1.17082097762878   -3.14211805841797
H         4.16371771742228    1.14073658626675   -3.98323811190371
H         4.73452990529882   -0.29336828525132   -3.11480718918819
C         3.43695656278580   -0.96189621007164   -0.67385953763479
H         4.17900771343287   -1.42544663929976   -1.31770235422021
H         2.44965247203236   -1.34129059319885   -0.94379649760686
H         3.64771132774217   -1.25565095563199    0.35214919845230
C         1.91626050395365    0.99504698514564    1.22650822786592
H         0.98675143019906    0.55981749720272    0.85488146717591
H         1.66832420345329    1.83197374863537    1.87456103180825
H         2.42975741274788    0.23955643678493    1.81744717832595
C         2.17999069476154    3.95941130912968    0.06569578806864
H         2.09230113166709    3.93473652164107    1.14983440028182
H         1.17416325397730    4.00682256522066   -0.35520812279508
H         2.70537921364881    4.86930919631016   -0.21452750001629
C         3.96810676549502    3.77584329470383   -2.60131382402066
H         3.28267473395128    3.69037719532706   -3.44655511641360
H         4.98547247593809    3.70959654819607   -2.98120587253724
H         3.82755491346732    4.75533453026802   -2.15038083963519
C         5.74352534440644    4.69449761294173    0.96811375919674
H         5.27949798534258    5.01814952069936    0.04832262500739
C         6.36738397336256    5.62095237817179    1.81217466516794
H         6.36159098812126    6.66357020730007    1.53542153669299
C         6.97462549275969    5.19537577592197    2.96358568662628
H         7.46254471789662    5.89298993957513    3.62815350845695
C         6.97264541419010    3.82028587661430    3.28165713261810
C         7.57224447252088    3.25239815345080    4.41443020332925
H         8.07996532259446    3.89227038782048    5.11918635188729
C         7.51940945067698    1.88901959222227    4.60648010304780
H         7.99124517042932    1.46218137783931    5.48001161747774
C         6.88421297779482    1.03379518195806    3.71403995665652
H         6.86762879613041   -0.03030516923105    3.88642802018158
C         6.26561942210024    1.54130273825033    2.57052648637746
C         6.31617665444714    2.95654467093187    2.36800990118171
N         5.71102193715065    3.40498576847071    1.24090134408874
O         5.64283695257938    0.82615267080729    1.69355224262578
Cl        7.10984880514004    1.91882869849666   -0.82996568371131
Ir        4.94818615600146    1.94688974660342    0.05553432529262

