90
CSD_code = VUMREC | q = 0 | S = 0 | Stoichiometry = C47H38BNP2Pd | MND = 5
Pd        9.72209000877436    5.01282639046163    5.36153588749779
P         9.28949455140914    7.12286354426429    6.30419593377074
P        10.14560777416278    4.54346402904094    3.14686225366691
C        11.95758530758496    4.63750031443459    2.96541974769632
C         8.43523772870895    7.84036507498379    7.74636195113612
N         8.47418388508729    3.35111307776298    6.44900726828755
C        12.65069240571183    5.17624039568103    4.05483802689967
C         9.58329790771997    5.75632819918884    1.91130149530372
C        10.90518077944823    7.95148877658736    6.33073969104441
C        11.95460479305677    7.28411772836600    5.67654202805320
C        11.92042234280063    5.14577266369207    7.91355000745617
H        11.98327184134975    6.20595917806186    8.12803518719827
C         9.48259442468108    1.35034097754054    0.61659519576544
H         9.45325109131877    1.13932575971627   -0.44302652759843
C         8.47214392532395    8.02043631943361    4.92557286013665
C         8.45277948294656    5.55536644188791    1.12620410322043
H         7.90179536805811    4.62719200345054    1.20288423811197
C        12.62444576706252    4.15151157087212    1.84697023775199
H        12.06665252038431    3.73784107179274    1.01943278392553
C         9.76577847717650    2.91591855244239    2.41566295886266
C        11.07257240926015    9.22531941732778    6.86439805197816
H        10.26724618372043    9.68506745978834    7.42313668868515
C        14.04465452870584    5.15217228235915    3.99582770468042
H        14.61538502899515    5.49102055886060    4.84931716171623
C         9.72700627577352    2.64031121314009    1.05234081849540
H         9.87670103616511    3.43271442095409    0.33184817559609
C         8.03135602082010    6.54115690226229    0.25181687930613
H         7.16215807700499    6.37290381689719   -0.36862991865739
C        14.00464687592081    4.18259806151667    1.80013496410165
H        14.52665912604066    3.80970910215857    0.93060025252707
C         9.55135669834011    1.88718614548381    3.32952483660685
H         9.56949349860618    2.11498127163209    4.39193922262308
C         7.46555670312063    3.89368948163941    5.75249626424364
H         7.35076595073440    3.53878024553308    4.72568594374176
C        12.26944973437084    9.89522899111635    6.69723312019819
H        12.40253805856728   10.88373006169830    7.11336701363668
C        11.85640605236087    2.42941652005956    7.38755993820665
H        11.83341246323302    1.36808836184362    7.18149238256380
B        11.91133986789123    5.73245421339282    5.34688140800842
C        13.13005375819359    8.01282198139613    5.48061810076936
H        13.94601161253460    7.56021277413335    4.93790558143994
C        11.84282559444668    3.33608098835399    6.34177510253209
H        11.87603584859005    2.96830745327908    5.31849328456615
C        13.28589268267170    9.29617087298914    5.97042336276304
H        14.21205174492035    9.82736690999821    5.80155625139160
C        11.91253103491457    2.87696680293752    8.69865004502034
H        11.93623734232298    2.16876482725105    9.51529200357703
C         6.56326395947850    8.91603261442712    8.80411322414015
H         5.60786737958582    9.41573556014431    8.72716184449447
C        14.71405965694192    4.66946515794663    2.88657480151537
H        15.79492806954454    4.66261068940442    2.87036136724262
C        10.24703620551122    6.97979428655863    1.85261779074866
H        11.09893501051837    7.14995015645169    2.49879049377027
C         9.30971416080367    0.59893289818850    2.88918369367126
H         9.14352881148577   -0.19464647141463    3.60319218907583
C         9.81517933936557    7.96535871507222    0.98748166515491
H        10.33574636863029    8.91102142738431    0.94571351102805
C         8.58309315186723    3.68673866276269    7.73363952492827
H         9.39920105692969    3.22097893179035    8.27327936765965
C         8.71437067460874    7.74309545675054    0.17508773586732
H         8.38242584188525    8.51061518979702   -0.50864883432109
C         7.14198447084188    8.71792666288427   10.04646999187606
H         6.64066491470709    9.06376474893960   10.93866637081321
C        11.87701317236011    4.72644694855587    6.57542118984962
C         8.62966554996839    9.38240858230719    4.69347498854553
H         9.28457230720286    9.96690169721583    5.32258095127073
C         8.36334294216307    8.06856623671466   10.14310464706077
H         8.81357219995094    7.90628843960176   11.11213581871032
C         9.00100270655927    7.62507620965598    9.00143881988835
H         9.94728479267117    7.10455938110935    9.06833847317129
C         7.69216776517599    4.52993176732911    8.38447794054379
H         7.82385108887966    4.75683413240324    9.43122200909088
C         9.27667856855912    0.32942008122665    1.53086850462245
H         9.08620094406050   -0.67511757341591    1.18188501601062
C         7.63944502077856    7.28376269886299    4.08845243730051
H         7.54216606419469    6.21241219584314    4.24699597925131
C         6.94607938997962    7.90074750778257    3.06385156156474
H         6.28653291285803    7.32295615913172    2.43301023560221
C         7.20131313060099    8.47534187812176    7.65795574808935
H         6.74303678155824    8.62715702887238    6.69031022390228
C        11.94646841210460    4.23895480012139    8.95677439419551
H        11.99741382438142    4.59197724477113    9.97815572158603
C         6.52451287468072    4.74928832105323    6.32015847251451
H         5.71122351068963    5.14017172402871    5.72548226934680
C         7.10636777156802    9.25739600955062    2.84106392329351
H         6.57346507404273    9.74071397272250    2.03534459583611
C         6.64055133360079    5.07258847232262    7.66385280404303
H         5.92415626111835    5.72720646624385    8.13855931094691
C         7.95749264789811    9.99214340986905    3.64978739024675
H         8.09346928881459   11.04929831265656    3.47084186706334

