42
CSD_code = VUMWUX | q = 0 | S = 0 | Stoichiometry = C15H21IN2O2Pt | MND = 6
Pt       -0.20194704077436    4.28921465071921    3.82992962285340
I        -1.17985807571490    3.37503744858777    1.43832119861554
N         1.69848274863594    4.62093954571703    2.70018506892088
N        -0.38299670611929    6.34735305903157    2.99208955724219
C         1.54252495221561    5.58034706441522    1.78070551480787
C         0.56263458742677    6.63791975259103    2.08689047071671
C        -2.06879069307225    4.12725912861798    4.67944168488031
C        -1.28297019662432    7.26758249988808    3.29291146619048
C         0.24334371417632    2.42536918890029    4.58509751898743
C         3.35622464423140    3.59724716662728    1.33158911563826
C         2.59831644777993    3.67011130404152    2.47779577962023
O         3.88153244078385    4.41749477701610   -0.79310674849285
C         0.62320555509999    7.88442532549102    1.48404665289869
C         2.24732968341983    5.57736042456921    0.58180770973125
C        -0.33439697924721    8.85454003411882    1.78914785385434
C        -1.31804701897077    8.52551505281761    2.72155731946341
C         3.16103252221901    4.55627959096401    0.33071695689819
O        -0.21423029381797   10.03454837104283    1.15573723657294
C         3.64952584385373    5.30106959025136   -1.86890067776024
C        -1.17114339317595   11.04139160446260    1.40687170501649
C         0.54008940549753    5.09946637444701    5.57764616728339
H         2.70826728664457    2.92524055677189    3.25406802876265
H         4.06561237694084    2.80232300978952    1.17587011163478
H         2.04326461485659    6.33341839487136   -0.15655095271957
H        -2.02508731127300    6.98977910062620    4.02974274435182
H        -2.09177729969457    9.21744234161835    3.00883130496555
H         1.40199645634234    8.14157187179614    0.78623808476033
H        -0.88312007315492   11.88221853001756    0.77891316486656
H        -2.17703168146849   10.71119394776121    1.13274458692010
H        -1.15841660389221   11.35077731915249    2.45602496196483
H         2.60683193721733    5.26193345180925   -2.19608097289350
H         3.91727893427935    6.32927746767544   -1.60655567347075
H         4.29436885853368    4.95606819462007   -2.67476196253824
H        -2.09866835981636    4.39342464911289    5.73706202046059
H        -2.72081698980342    4.80571269774543    4.11921912719402
H        -2.46626488175323    3.11734027052215    4.56382166278847
H         0.20830358135561    1.70068305168580    3.76776292935313
H         1.25518560344543    2.43860673937397    5.00110197913666
H        -0.43264783679242    2.08459621532896    5.37017305499994
H         0.40794144783249    4.47318544772469    6.45791024129768
H         1.60897715444090    5.27865442214741    5.44377340181323
H         0.05494063794975    6.05928036553934    5.76921098244851

