100
CSD_code = VUMWIK | q = 0 | S = 0 | Stoichiometry = C46H50MoN2O | MND = 4
Mo       26.31628024745831    3.52859361779515    0.35117267561372
N        26.37656044287594    5.26660622151435    0.38933036600458
C        26.49467830655970    6.60597633396297    0.44334894331578
C        25.46093318155084    7.41625235983319   -0.09486056445906
C        25.60070050939507    8.79039622311265   -0.08276074173210
H        24.81400280856057    9.41208102714346   -0.48178517700272
C        26.73868778823408    9.38965946537261    0.43054420323526
H        26.83760043550527   10.46507847809819    0.41842748539766
C        27.74195929424011    8.60677257107878    0.96956996744159
H        28.62151268350386    9.08409118772518    1.37652660980039
C        27.63664546461315    7.22669275779644    1.00100504079135
C        24.21889297479054    6.74339200151920   -0.62522725372198
H        24.50801122751498    5.72452682256798   -0.92321194779918
C        23.18881123503621    6.61772353942795    0.50216341764189
H        23.61257880301580    6.05448139677618    1.33209832329810
H        22.30532344182729    6.09036179817845    0.14980906801017
H        22.89426322440249    7.60221209217114    0.86144773104880
C        23.60966650979774    7.45233821886053   -1.83331581923554
H        24.36929389514339    7.65004026807897   -2.58664928519781
H        23.14966377136518    8.39550527257192   -1.54815466217476
H        22.83758778011007    6.82530068484780   -2.27454855355258
C        28.71673871591723    6.39497790281715    1.65035827264314
H        28.40055749021678    5.33378696293771    1.62600064870061
C        30.04391864436937    6.51157536701988    0.89819818785576
H        29.91825392600663    6.24119156256623   -0.14807325584493
H        30.78372354246597    5.84758047154498    1.34155830349021
H        30.42181096190373    7.53033873874326    0.94519305706097
C        28.89129695302312    6.80962616726847    3.11264727682075
H        27.95528004083159    6.69220347864871    3.65502063537644
H        29.19838835606446    7.85015315606626    3.18381538203153
H        29.64957347198992    6.19384001392512    3.58842602871146
N        24.32749899819594    3.23294504553101    0.45225385467812
C        23.81569657294595    3.20682139066352    1.72921442401924
C        22.46344848781664    2.98982112682584    1.68173179831677
H        21.79544911808138    2.92076877250077    2.52003317913038
C        22.11932845865738    2.88135864616885    0.31529002045348
H        21.13661153616592    2.71432065244044   -0.08302770792605
C        23.27777704363065    3.03259913668235   -0.40436876156470
C        24.69753318415345    3.39874516370737    2.92677836635581
H        24.08078571941778    3.60825745318377    3.80016034504564
H        25.38547692396531    4.24707731862485    2.78240766980926
H        25.28193950529021    2.49575927543231    3.14852613291056
C        23.44900593587276    3.01047516762251   -1.88630326140365
H        22.49007402860492    2.80313882851881   -2.35518942939465
H        24.15936388763198    2.23884126514399   -2.18463198239067
H        23.81605465117224    3.97158106738668   -2.24946269941992
C        26.76127716647879    3.12928544502585   -1.49688007534890
H        26.72650557586819    2.04784089155303   -1.69759943832669
C        27.41598537790078    3.79419175442153   -2.67183375843975
C        27.43035594819300    5.32393486058181   -2.57048572566354
H        27.91782251094131    5.64996568402665   -1.65596897781354
H        26.41239020173812    5.70566343864843   -2.56690966772406
H        27.96375013322666    5.74749273987889   -3.42020268406069
C        26.69719292754291    3.40664733010142   -3.97219620657602
H        26.69690431664002    2.32777618088020   -4.11393222286484
H        27.16373774088336    3.88061715477388   -4.83336780259014
H        25.66454565782815    3.74305597964667   -3.91871837639741
C        28.85561348218972    3.28330988451604   -2.62292574319167
C        29.49061026458758    2.67472648454121   -3.69768001676832
H        28.98468013593591    2.56455946881099   -4.64350713951588
C        30.78601911651042    2.19581278727450   -3.58056522093073
H        31.25652429066952    1.72146017417481   -4.42996160281691
C        31.47465787942149    2.32055930628460   -2.38915417295388
H        32.48329844204815    1.94514523145560   -2.29903342083010
C        30.85584627105959    2.93269335573274   -1.31128849584011
H        31.38429635556363    3.04658077456680   -0.37678240091538
C        29.56216456576350    3.40135114530749   -1.42683932579378
H        29.07770369602324    3.86362092609250   -0.56666077779487
O        27.18915060290668    2.17465240961008    1.15569146195821
C        28.01953545834825    1.14477873491138    1.06192666729485
C        27.64412698516191    0.02332390762423    0.29428284058813
C        28.56829741469731   -0.98733034385369    0.06684504433758
H        28.27117705123597   -1.84453963347684   -0.51946424841225
C        29.84147986491785   -0.91834602502357    0.60162197008682
H        30.55103019385731   -1.70984644482131    0.41485938461575
C        30.19014118059674    0.14931513207064    1.40598785653269
H        31.16341612139315    0.17485570310072    1.87342199236272
C        29.29456475699090    1.18261398805697    1.66005624861147
C        26.27144591020321   -0.08787638130454   -0.22932779578181
C        25.17696349582425    0.16144594540399    0.59967070420861
H        25.33827444982789    0.41043434086487    1.64313758238483
C        23.88511649179555    0.00306735541080    0.12754745581376
H        23.04774414149195    0.18399805653745    0.78442326278187
C        23.66885069738029   -0.38948629641149   -1.18216358258530
H        22.66129410578717   -0.50400994107316   -1.55188112286295
C        24.74819850065156   -0.63750388730453   -2.01485733043858
H        24.58264601725824   -0.94729462629927   -3.03678627366270
C        26.03943381693466   -0.49424664325295   -1.54267022624026
H        26.88113696216990   -0.68533544194820   -2.19403348366989
C        29.66385050631835    2.25151425451005    2.60263517484851
C        30.95372734939587    2.77895198129622    2.62231726088602
H        31.66652730968178    2.46886137756747    1.87233847165885
C        31.33301507408467    3.68194064928179    3.59731632333336
H        32.34010102278157    4.07381083824868    3.60398600640217
C        30.43181957246617    4.07331699252890    4.57375725560007
H        30.73730011536778    4.75675216622310    5.35276340141641
C        29.13882933718238    3.57676608093687    4.55133174819876
H        28.43023375638427    3.88171800345920    5.30781016417115
C        28.75664178895823    2.67866936916069    3.57269504550579
H        27.75810771100340    2.25967090925161    3.59536768103632

