85
CSD_code = VUMXIM | q = 0 | S = 0 | Stoichiometry = C43H35AgBrNP2S2 | MND = 4
Ag       -1.64926968765604    9.67351844407115    5.81080352950676
Br       -0.36785709560730    9.99033764943268    8.03419053411614
N        -2.79615961129435    7.88411021522735    8.54836595238007
H        -2.05004009162964    8.58618261488462    8.39742930926824
P        -1.36703212431251   11.03465584996521    3.69766664766797
P        -1.01466254789707    7.22959161614424    5.02930012944524
S        -4.16844738583453    8.67533091021853    6.39764959467911
S        -4.93354633527452    6.49881974638701    8.31388539281952
C        -3.85522232744450    7.77287089095394    7.74057209432018
C        -2.74257601760830    7.00798252152751    9.59887794631730
C        -3.84793634618121    6.15036478186561    9.64287224648774
C        -3.96646215185891    5.19106224297980   10.63116517095793
H        -4.82208056993769    4.53554332789450   10.66020969204981
C        -2.95661865113962    5.10192807979395   11.57332708291041
H        -3.02810014859478    4.36050889801433   12.35422123475913
C        -1.85640654206110    5.95217998731066   11.53076625142096
H        -1.08517830053349    5.85953434674378   12.27971845834455
C        -1.73466508532390    6.91495619987187   10.54770434666185
H        -0.88990730305129    7.58310515262209   10.49869024365826
C        -1.18153430731696   12.83885892824227    3.89308855577088
C        -1.29031502750495   13.72326656748345    2.82470952186769
H        -1.50859642121079   13.35166910866204    1.83360386514252
C        -1.12439027423097   15.07935568022257    3.03652413347242
H        -1.21083045572639   15.76546748349198    2.20638044158826
C        -0.84909979928312   15.56025974981093    4.30734026707118
H        -0.72090395158077   16.62089308751013    4.46540806445601
C        -0.74320251094611   14.68307484532258    5.37386920718806
H        -0.53183474362174   15.05446012688236    6.36544705386462
C        -0.91350982112471   13.32608188737476    5.16823384452669
H        -0.83792464168747   12.63218888292507    5.99889341587250
C         0.16370843317758   10.59015000410436    2.81822683671525
C         1.32562076054583   11.34027345460248    2.96631612474647
H         1.30923664540655   12.24600983355474    3.55656688376564
C         2.49803276432766   10.92746710617942    2.35961565021257
H         3.39666305886517   11.51556630634198    2.47688270463956
C         2.52284903468688    9.76578894207489    1.60689875992162
H         3.43866214769433    9.44862930292984    1.13075931573109
C         1.37256419766548    9.00536331893778    1.47133798060182
H         1.38964112367995    8.09425754012525    0.89150810485752
C         0.20166064182585    9.40567964710184    2.08422201635853
H        -0.69267758400878    8.80367196757702    1.98703925392927
C        -2.63307898165742   10.92956624081895    2.39105709648771
C        -2.35125908773049   10.99718477113308    1.03036857171402
H        -1.33017795698927   11.10749329540142    0.69158783594350
C        -3.37991682646897   10.90830104303235    0.10993843548989
H        -3.15783565327036   10.96039044883240   -0.94634342050532
C        -4.68917107723967   10.75170586723901    0.53590573979466
H        -5.48651842750910   10.67892164282958   -0.18910720628075
C        -4.97444183044873   10.68292347188460    1.88990399851555
H        -5.99269460066481   10.55388711722504    2.22570850780209
C        -3.95002159526949   10.77019599842350    2.81374960731983
H        -4.16508170997393   10.70071065717876    3.87349572689514
C         0.71328744252902    7.13584070936330    4.43899542678118
C         1.59292459507295    8.08020024393178    4.96153884672700
H         1.22640532742181    8.81630909264285    5.66841697693776
C         2.92062298488082    8.08892779224215    4.58007469746979
H         3.59389687978712    8.82406563463164    4.99480341544437
C         3.37992717612088    7.15878745905373    3.66274989250149
H         4.41683347239537    7.16270018739074    3.36061868393662
C         2.50586827919598    6.22782311807674    3.12701908226612
H         2.86128904794364    5.50633761925745    2.40504656086020
C         1.17637368317821    6.21341040829788    3.50926453217550
H         0.50207934340653    5.49125514995420    3.07297393917743
C        -1.03316029248211    5.95312735416914    6.32836799195094
C        -2.18354840234979    5.19864152406014    6.54880868129771
H        -3.03524866273370    5.30954632558826    5.89016869236295
C        -2.23725787155078    4.30899773486641    7.60536383561973
H        -3.12749168927569    3.71696392025679    7.76171541721776
C        -1.15910565406741    4.18342520587590    8.46610528084790
H        -1.20840914802838    3.49358528538631    9.29501063635713
C        -0.02729762474608    4.95792897799934    8.27151898838463
H         0.80766886833826    4.87433197353890    8.95107675983360
C         0.03810967061504    5.84207577701446    7.21089832435561
H         0.91870264212274    6.45151688519230    7.06371840486901
C        -1.95787215922246    6.43334633727895    3.69053767775162
C        -2.75458732462361    7.25987780874379    2.90681756802328
H        -2.81660841983302    8.31466293563034    3.14314258147440
C        -3.48067481867861    6.74403706488279    1.84926931994075
H        -4.09476224092387    7.39973045028242    1.24894609139535
C        -3.42096526464821    5.38875399710990    1.57280984285668
H        -3.98761453595527    4.97832917632350    0.74994282807730
C        -2.64522740247826    4.55375094806494    2.36238164752222
H        -2.61064736445809    3.49399053402388    2.15408246029961
C        -1.91663040722300    5.06772447327400    3.41919087938391
H        -1.33043332876998    4.40800009442509    4.04477128278116

