64
CSD_code = VUNFAL | q = 1 | S = 0 | Stoichiometry = C27H32PPtS3(1+) | MND = 4
Pt        0.01642396890832    3.69232695849575    0.84825517453259
S         0.24821827092511    1.73365710094402    2.13348580380925
S        -1.97001647484407    5.69184299946443    4.04888898558459
S         0.29646384802322    5.68944288233268   -0.43437735500221
P        -1.96211408125719    3.04030496965840   -0.29166765926479
C         1.85249798616401    4.12537933539432    1.57739687601072
C         2.61280392980756    5.14838491535312    1.00387449381490
C         3.86009640349748    5.47736503322853    1.51820290202683
C         4.37969255979396    4.76885261705275    2.58620072774311
C         3.66804541823001    3.71320409915326    3.12312960407539
C         2.41129317624472    3.38979973992286    2.62367488872170
C         1.66524921329325    2.22821005258779    3.20578278919839
C        -1.12148833517342    1.66911608398074    3.35202376315188
C        -1.88727008528843    2.96960313219044    3.54558622715587
C        -1.03382110782681    4.12540107353085    4.05035749383594
C        -1.76933174686882    6.14401786401593    2.29434955774315
C        -0.48131820122709    6.90796387088987    2.01972281551980
C        -0.29439772298167    7.13678191850698    0.52742603993491
C         2.10993424987898    5.84712865968126   -0.22167955688558
C        -1.31912676282925    2.33072774470230   -1.83625378453868
C         0.05655650803195    2.32389337859426   -2.04121217276272
C         0.58469888330898    1.79418963447783   -3.20433537648935
C        -0.26091560658441    1.26670042802614   -4.16606376890917
C        -1.63228346997667    1.25963179524297   -3.96017094482815
C        -2.16375617530095    1.78647098139213   -2.79838196066760
C        -3.00343406135702    1.68381831682922    0.32761881209129
C        -2.46245820782265    0.39920955673683    0.32352120261719
C        -3.19329011592290   -0.66423139937963    0.81760172788174
C        -4.46239857271893   -0.45210804514154    1.33486275880629
C        -4.99541119199134    0.82579036678440    1.35948004240187
C        -4.26954103412661    1.89457342416541    0.86209245395689
C        -3.16961249469999    4.27766517323209   -0.90471858517519
H         4.42737225744096    6.27972433862885    1.07120767413619
H         5.34727893070642    5.02692969606870    2.98559192444862
H         4.08399719763118    3.13347975839297    3.93313922654950
H         1.26933959984739    2.45672442074621    4.19541991525900
H         2.30947741133541    1.34996969703962    3.28186539112027
H        -1.79475351219849    0.89904477599767    2.97385582970449
H        -0.67656585972610    1.31973369905008    4.28300597922218
H        -2.35437244279061    3.24338506423243    2.59415224976765
H        -2.69294355610796    2.78160751886407    4.25873855769198
H        -0.15624658461989    4.28841346491010    3.41778470579189
H        -0.71993137113109    3.96772317183335    5.08120947694256
H        -1.79873149304227    5.21748463269289    1.70589707313420
H        -2.63616954907388    6.75454751114985    2.04434974975532
H        -0.52754459901103    7.87824563450328    2.51836077557013
H         0.37956623092648    6.36926871436021    2.42535437247253
H         0.43458991537469    7.92281406785694    0.33675989170288
H        -1.23903981617593    7.41912931691925    0.06133435115442
H         2.53087551394619    5.38146773581592   -1.11739033446918
H         2.35832861965177    6.90839021122603   -0.23940265342212
H         0.71990495298835    2.72931920590165   -1.27561772446667
H         1.65290634779453    1.78907218890177   -3.35993859777609
H         0.14817044760009    0.85405341830127   -5.07524477441830
H        -2.28759218182629    0.83876258430242   -4.70737792049528
H        -3.23168186337632    1.76456382173985   -2.63202479820819
H        -1.47009677530549    0.24064396228697   -0.07903417686959
H        -2.77488230739129   -1.65905334970008    0.79824848385038
H        -5.03420620858965   -1.28283346767625    1.71799251622137
H        -5.98185713976074    0.99239257647716    1.76432627305500
H        -4.69670353130226    2.88638560286247    0.88744506385561
H        -3.64127918641990    4.80101600207187   -0.07416508934932
H        -2.63352429632621    5.00261823672416   -1.51779498520115
H        -3.93477411836289    3.78996112547798   -1.50712240285845

