53
CSD_code = VUNHUI | q = 1 | S = 0 | Stoichiometry = C24H18N7NiO3(1+) | MND = 6
Ni        3.82570148466718    0.23902875802030    0.49379144141827
O         2.76996972709818   -1.75251936707424    0.45550516501852
O         4.19634708643222   -1.34593779369717   -1.07467608884439
O         3.15452373015459   -3.21605751552749   -1.05848078699290
N         5.30397881144554    1.48000133665308   -0.44302804880040
N         5.27454971151120   -0.44124741601355    1.34539691065623
N         7.46520198156502   -0.73850193390518    1.46535985163022
N         2.68741928648865    0.78609525800868    2.23235978850705
N         2.36979433223301    0.88617437569348   -0.37281776617064
N         0.23238171046426    1.46330643836957   -0.36518485063998
N         3.36643289223109   -2.14247952714177   -0.57661520390729
C         5.22611851006117    2.43235061957713   -1.35941114237413
C         6.34607675104321    2.97155561923983   -1.97695661900680
C         7.59982222170820    2.49724863781696   -1.62395423163330
C         7.69216754188248    1.50331108259425   -0.66456622673448
C         6.51958640945480    1.01558298179692   -0.09419160322226
C         6.45693443385827   -0.03644214035892    0.89765646416719
C         6.90087527721833   -1.66731754237141    2.30492173192411
C         7.44822080971348   -2.65138798358868    3.11608940281200
C         6.56398938104041   -3.44036598266636    3.82118073247216
C         5.17791349755745   -3.26538683992256    3.72326505440579
C         4.62371037010085   -2.28682212523686    2.92973228639101
C         5.50281418662599   -1.47202724495284    2.21615046625439
C         2.92685698770218    0.68560671942609    3.53050517260191
C         1.95426343585325    0.92096349935618    4.49243508669661
C         0.67884306119334    1.27742109634016    4.08284267391830
C         0.41888467769036    1.38752618380255    2.72746252674622
C         1.44976002161846    1.13131720976671    1.82750740083240
C         1.32080614367773    1.17812085626286    0.38685115738411
C         0.59082025710599    1.31986871645610   -1.68304442630867
C        -0.11809403182640    1.46327209119376   -2.86761338403256
C         0.56668002638866    1.21120169185727   -4.03764178411757
C         1.91268021440779    0.82342941255827   -4.03691107904237
C         2.62872884314882    0.68686551983437   -2.86925505359563
C         1.95524763796564    0.94660897385559   -1.67555721715681
H         4.23615846125923    2.78508174348547   -1.61430684447265
H         6.23349352700773    3.74494343558174   -2.71904961842800
H         8.48988109031456    2.89180613068364   -2.08890354781735
H         8.44854611988004   -0.64255536903170    1.27204187993484
H         8.65238644353906    1.10979022861423   -0.37169370707457
H        -0.69002107427377    1.68647639614848   -0.02827199030123
H         8.51452744104867   -2.79704233916284    3.18124243852740
H         6.94752992030982   -4.22241167655524    4.45740914172945
H         4.53127595397001   -3.92426181609115    4.28082200137488
H         3.55772963795865   -2.16540114428751    2.81783769705479
H         3.93082431452344    0.40893560289414    3.82154283466527
H         2.19510876927686    0.82451102720058    5.53838689036262
H        -0.10055897496263    1.46396697645432    4.80514063866128
H        -0.56410474723320    1.65855263039059    2.37697617289392
H        -1.15810909888109    1.74743209353728   -2.86931836630216
H         0.05044156698262    1.30243018105892   -4.98021639795200
H         2.39390408408753    0.61842499786818   -4.98003354434118
H         3.65467914572120    0.35395723517817   -2.85341347977920

