58
CSD_code = VUNJOD | q = 0 | S = 0 | Stoichiometry = C19H28BN7O2W | MND = 6
W         5.39236482762084    3.10292322674365    2.37499282275798
C         6.05668154337276    4.93367468937013    2.57050537110438
O         6.60001717684575    5.95898176076002    2.60466501520922
C         7.14947069277876    3.10216166223161    1.51308812901565
O         8.20235554824910    3.27273227891668    1.05470883107015
N         6.11556495313322    2.53411236237346    4.10639847103239
C         7.35652465550763    2.90828777905714    4.73857789931083
C         5.40490864468843    1.61786465670472    4.96472328178558
B         2.48509074620560    1.96179017668768    1.34726109106573
N         3.38865856680995    3.33426455113185    3.23207214144930
N         2.33331315133289    2.72859144176519    2.66611999507992
C         1.21756930960986    2.97558918314841    3.38139229907536
C         1.58073777672314    3.77419813175032    4.44913562473325
C         2.95764283939774    3.97973176010255    4.31221444094931
C        -0.13048960764517    2.45461940374848    3.03439057339911
C         3.84222069189948    4.78917144546321    5.19514971758966
C         4.51406424178346   -1.12770193107688    1.59765416925751
C         5.39668463829897   -0.10001521150503    1.94641100021968
C         2.01686732484583   -1.12723573681313    0.93788929014118
C         6.83850643105790   -0.22739248809361    2.29562042149773
N         4.74729665711348    1.06044224307042    1.91549066709861
N         3.47978887300101    0.81317244859357    1.55059543666819
C         3.30389436140583   -0.50828588257292    1.34954837539055
N         4.28554065468384    3.52295691111301    0.51106659637269
N         3.09081306458410    2.92898916050398    0.31084198010183
C         2.57649572895919    3.31457787166085   -0.86880631506040
C         3.47718619273324    4.19116174499710   -1.44990793894870
C         4.53717676875311    4.29422233913355   -0.54946691043448
C         1.27042381623172    2.85294638254217   -1.40714681574136
C         5.76607510905093    5.11564785643429   -0.70333470324172
H         1.44290439646899    1.55285740526938    0.97820043336214
H         7.17401562134738    3.38564680043373    5.71193105584297
H         7.90619570827863    3.60356157801749    4.10497282341062
H         7.98552062465836    2.02578520674671    4.92336578233310
H         6.00590029572371    0.71978014696329    5.16619468068190
H         4.46426764009035    1.30759565137870    4.50988061494390
H         5.18409091272065    2.08040700233513    5.93719829086657
H         0.94109377459922    4.15877367401212    5.21752244373369
H        -0.45556145260111    2.83682532656000    2.06797293685414
H        -0.84423123445921    2.76664828577459    3.79223024090786
H        -0.12436045658447    1.36711830255288    2.98214945573961
H         3.86181196413832    4.37108060257968    6.20147821166797
H         3.46187840685427    5.80781187614480    5.26600572570540
H         4.85615960057304    4.81249161127658    4.79223689652552
H         4.73159538567729   -2.17452102427850    1.53187353825410
H         1.23070440359203   -0.90104081142623    1.65643490818564
H         2.13803754271410   -2.20550746922854    0.87676032102159
H         1.70198171454567   -0.75374596984648   -0.03522532391801
H         7.28178071192973    0.76073201705017    2.42923528922993
H         7.36654730146810   -0.75308942962746    1.50095573530846
H         6.95892858322246   -0.80389722991893    3.21253706514406
H         3.37821384261052    4.68607541784440   -2.39457006585194
H         1.26412602037879    1.77141874601017   -1.53094890364408
H         1.09359131212412    3.31818029406835   -2.37312706538463
H         0.45842864285045    3.12081379010389   -0.73340808649756
H         5.84181437211204    5.84894562415517    0.09723980306950
H         5.73960592535378    5.63649718231046   -1.65725782763801
H         6.65511306057869    4.48927517479453   -0.66678993780433

