79
CSD_code = VUNLIZ | q = 0 | S = 0 | Stoichiometry = C31H40I2IrNP2Si2 | MND = 6
Ir        5.32866006189306    2.42550959656204    2.92230421425529
I         5.84428587732298    4.92957343684116    2.13619529387405
I         3.84910057501313    1.45743594984840    0.76452098698881
P         3.35035059465391    3.04510627146018    3.98173917910583
P         7.26108990499126    1.62069140888829    1.93000409402848
Si        3.77610253313319    0.13043397715434    5.07922008107380
Si        6.22735026590665   -0.98320750899696    3.40891863298250
N         4.92418592736395    0.17385067047646    3.73099198292433
C         2.53705780810558    1.51291509287280    4.60198180656652
C         7.21815564920749   -0.22025680427612    1.95590566324755
C         2.82850415787100   -1.51946186597395    5.09214609684000
C         4.65419474776516    0.35595221537400    6.74960420049906
C         5.48045301061978   -2.61087668711994    2.76260623880317
C         7.23015440468603   -1.32221129510976    4.98674817953117
C         3.43932910747107    4.13953415431535    5.43694510593224
C         3.38720677177625    3.68786306628670    6.74942081074335
C         3.48309126823062    4.58569337836354    7.79845929423959
C         3.63799636991466    5.93811672212432    7.54750873818786
C         3.69485929182988    6.39443761793505    6.24019028200291
C         3.59634399635491    5.50217097384914    5.19051112979266
C         1.95026086743396    3.88732036475164    3.15500938564197
C         2.04641058220551    4.42715432185513    1.88047771548149
C         0.95730105994761    5.06294119320690    1.30932381868336
C        -0.23141813360924    5.17002620814027    2.00761543222287
C        -0.32744821359260    4.65099382624802    3.28955745156686
C         0.75682249937002    4.01752584064742    3.86284158745268
C         8.83608422601682    2.05946605915777    2.72869499521069
C         9.47677557531969    1.24462843572730    3.65231084436465
C        10.65040525197438    1.66427845952981    4.25382759752235
C        11.18716596723596    2.90252800787716    3.94570931226629
C        10.54708160367349    3.72434900235112    3.03133064773375
C         9.37730641071735    3.30763316866449    2.42649570558192
C         7.76480112949844    1.91943028165138    0.19659790697685
C         7.02901847478444    2.69773503854958   -0.68479924465557
C         7.46449922121177    2.87407514688989   -1.98734208616789
C         8.63558453924520    2.27762911137392   -2.41720643732825
C         9.38103236513419    1.50708970657798   -1.53784512540888
C         8.95142349268349    1.33054735559156   -0.23815908451110
C         6.44859095911495    2.79516836780995    4.66090749756769
H         4.35143382838817    0.16685429747108    2.87951363417774
H         1.84888488675506    1.75526776301291    5.41122905735786
H         1.93290251515130    1.15371817578826    3.76281365784792
H         6.70986284288061   -0.49638217555011    1.02709554562134
H         8.23425376286704   -0.61062349555387    1.89195503387899
H         1.98705147488379   -1.47521975186207    5.77525651428277
H         2.44199811748340   -1.78264392916150    4.11265285328929
H         3.47142337131656   -2.32789089383585    5.42288131761674
H         5.28280584552838   -0.50202866134781    6.96186632333528
H         5.27772096161151    1.24230716377852    6.79053503482591
H         3.92455764663686    0.42072594999493    7.55179794142341
H         4.91828931224978   -3.12137295325472    3.53678476285646
H         4.81071552352764   -2.44689306408575    1.92315178019705
H         6.26087600889584   -3.28676315355377    2.42850446460203
H         6.66331660302686   -1.97440175335919    5.64315504944431
H         8.15422736975757   -1.83883164651036    4.74589152268425
H         7.48038289618787   -0.42598577343763    5.54422658680117
H         3.27010571386339    2.63575316672452    6.95883129161878
H         3.43847075894835    4.22459939671100    8.81626696305612
H         3.71501705689837    6.63429753136288    8.36950259187007
H         3.81843069339415    7.44737377401997    6.03692640875990
H         3.64315653009739    5.85913330796771    4.17130908642060
H         2.96690004099260    4.36027993295417    1.32407056511789
H         1.04427067671393    5.47362626969602    0.31514697221866
H        -1.08231534880030    5.66244877257012    1.56062879498269
H        -1.24968722657312    4.74341251170705    3.84513948774340
H         0.67901499229868    3.63146744437750    4.87045807115213
H         9.06360246681549    0.27920397471108    3.90115414429967
H        11.14570361210403    1.02150375069930    4.96792603585884
H        12.10175718473360    3.22742365363935    4.41939488710042
H        10.95806215773798    4.69348275686434    2.79152981780274
H         8.87410914412425    3.95063606798449    1.71733180408251
H         6.11742254678147    3.17577075733395   -0.36655733370145
H         6.88276886779536    3.48184239566317   -2.66322062307509
H         8.97420128494894    2.41442200401838   -3.43355531428494
H        10.30148615912593    1.04580800720205   -1.86598465681359
H         9.54577477189091    0.74183027000694    0.44853948492662
H         6.84868126858323    1.83590669369515    4.99471822732414
H         7.29386991199348    3.46821431292330    4.51866766091924
H         5.84092356590958    3.21113688115956    5.46599462055945

