79
CSD_code = VUNMIC | q = 0 | S = 0 | Stoichiometry = C34H37N2O4PPd | MND = 4
Pd        0.81668676631476   12.30926376507616   11.93773893879377
C         2.08851832277250   13.78090088238443   11.77656393111184
C         1.92200504511084   14.85598849540307   10.90764686740882
C         2.89396910976178   15.84727182386829   10.85284072348583
H         2.76359983337347   16.69381569070123   10.19309629991608
C         4.02978843996745   15.74904426249310   11.63842785914052
H         4.78152136004222   16.52335650733194   11.59603708792282
C         4.21723988930008   14.65447896607274   12.46591796443111
H         5.11897453577254   14.57140758666942   13.05749239332763
C         3.24809113454140   13.66194301628323   12.53669115667785
C         3.40512702155638   12.45158361204157   13.42640999338462
H         3.18896728536935   12.76767912230179   14.45017815371476
H         4.44732106710602   12.10059809316088   13.41211819112709
C         3.16262204975450   10.39473820528890   12.15346152380505
H         4.11753095041001   10.07937462458567   12.60996657119282
C         3.46856276144315   11.07154056516624   10.81290298456200
H         3.98155076324474   10.37025725820674   10.15779554180431
H         4.09742678289048   11.95106909840352   10.92993825196758
H         2.51879094111989   11.37032340031563   10.33830245163198
C         2.31623146973556    9.15447398663933   11.86053339880150
H         2.27756927664052    8.46886278808415   12.70310979942160
H         2.75110295907357    8.61536696619929   11.02182405029355
H         1.30053351591511    9.44859077376159   11.58981185159906
C         1.87293432027009   10.71915400480893   14.24735116141303
H         1.25268841160684    9.89852306657998   13.87540064266616
C         2.88893058870963   10.14602502616766   15.24068096843730
H         3.54676756244321    9.42574475370747   14.76013936752602
H         2.35746787066009    9.63401942299546   16.03899229736034
H         3.49949359767109   10.92584581350155   15.69005688160573
C         0.91537876113300   11.69104492757796   14.94802016034528
H         1.43788017843693   12.48154620214415   15.48579180829384
H         0.30941982260625   11.14219287070259   15.66592573182296
H         0.23662477616441   12.14660666064848   14.20645791823928
C         0.71398800715726   14.85703804285150   10.00960960302693
H         0.31156604965678   15.86585657867930    9.87315969960765
C         1.05389066770025   14.27275948910760    8.63828130753634
H         1.91681746458183   14.79899308383509    8.21607603841248
H         1.31905053173602   13.21712973952595    8.74409724417996
C        -0.11236281904557   14.46068513522579    7.68699595746698
C        -0.22522937616083   13.52506554473127    6.54374907792697
C         0.81021345899203   12.68862388339667    6.13063971049441
H         1.77313733997235   12.72434059729736    6.61668542706966
C         0.61790879731847   11.81838560593660    5.07422755199233
H         1.42497127204683   11.17460897776346    4.75653400464231
C        -0.60444011148113   11.76590538258177    4.42299246031300
H        -0.74999503619705   11.07577379822754    3.60516793748845
C        -1.63506268307883   12.60322015177950    4.81780301610308
H        -2.58585625146794   12.57000245193263    4.30748116105917
C        -1.44415767458775   13.48071643625202    5.86617394842999
H        -2.23415134427756   14.14063391378021    6.19097324755190
C        -1.37093898912425   15.00779798227457   11.86583859390100
C        -1.26475465313240   14.97683118109889   13.24959131040214
H        -0.71916770662305   14.16153835458148   13.71331316573982
C        -1.85665157322547   15.96900586190234   14.00956391853238
H        -1.78009858620782   15.94605371334322   15.08679437741783
C        -2.55035840552807   16.99397560458565   13.38691774471692
H        -3.02024031457566   17.76522356916743   13.97978819839629
C        -2.63489088743651   17.03979131249352   12.00418587704343
H        -3.16366116977816   17.84952987659928   11.52234624709406
C        -2.03742943483255   16.05557906072174   11.23760156343358
H        -2.07637231453451   16.10521929374226   10.15772287849325
C        -1.61209330495378   12.98627184207482    9.68031616998767
C        -2.91654999407823   13.38116430974545    9.41792215448353
H        -3.33583929974727   14.23630239357953    9.92403686327004
C        -3.68327778245899   12.65480174054224    8.52414244848952
H        -4.69872880615245   12.96175212812511    8.32110671051869
C        -3.16564983552857   11.52914014071505    7.90498599457537
H        -3.77428220307308   10.96350391996709    7.21549972996731
C        -1.87757523521375   11.10920971679439    8.19284349424935
H        -1.48227823241731   10.21426648395135    7.73580134026455
C        -1.10653824401796   11.83218909191931    9.08141494534163
H        -0.10890652670752   11.48281044035891    9.35190186112274
N         2.48246998925133   11.35206410114286   13.05551507611464
N        -1.78212565100899   11.01179941031953   12.08265639401744
O        -0.92156913394465   15.34779162695502    7.85946922807670
O        -0.61163918066979   10.58749922537060   11.92842212511891
O        -2.71787677796977   10.26854588583609   11.91457125680684
O        -1.93274636887692   12.19513188457368   12.41682359308736
P        -0.50963483933612   13.74553879376563   10.90413642305419

