93
CSD_code = VUNMEY | q = 0 | S = 0 | Stoichiometry = C42H39ClNiO8P2 | MND = 4
Ni        3.07502686058233    4.80400269979911    5.04774637080169
C         3.07319929358725    5.77546339294765    3.38452601409201
C         3.95306114793921    5.43164080869128    2.35062800300822
C         3.94483435211729    6.12809857698506    1.15008577502368
H         4.63476937965109    5.85004462547462    0.36553072367662
C         3.06823197703560    7.18432472883083    0.96729776502843
H         3.06605605877418    7.72808655578749    0.03387861552472
C         2.19455713283561    7.54461000484206    1.97933649470694
H         1.50295410631872    8.36324451412577    1.83686662227679
C         2.19132000584620    6.84335936114484    3.17718416128204
C         1.23253160876061    7.14844456351228    4.29631460634823
H         0.89837303861296    8.18999569317368    4.33025197376108
C        -0.00435189404808    6.23545872119369    4.19129542849503
H         0.24316754101717    5.21527070321256    4.51775911574163
C        -0.42838464714210    6.14694061779541    2.72987406451582
C        -0.27624650640905    4.78026155584046    0.82639486680584
H        -1.20051822135372    5.27671627726401    0.52525755197096
H        -0.34337775853773    3.70518768061407    0.67910584927401
H         0.55804284214710    5.18960664838337    0.25323388685020
C        -1.16008194841615    6.78133413330317    5.01119243477737
C        -3.20437899428127    6.21778044815334    5.99181091543566
H        -2.90874133598025    6.59097112146211    6.97450381580485
H        -3.82217624993555    5.32901762862964    6.08678482084774
H        -3.73945214111210    7.00525556292297    5.45814150299223
C         0.98917929173775    6.75110611248626    7.15357060838320
C         0.70523803956684    7.99655623685440    7.70474935632759
H         1.24210349696110    8.87116073793096    7.36665290767969
C        -0.27056192342711    8.10959654176919    8.67590307295076
H        -0.49718293764013    9.07680454019096    9.09936654496179
C        -0.96318228102781    6.98673316025817    9.10229562003126
H        -1.72622556499641    7.08159236630861    9.86165217950324
C        -0.67771150346174    5.74517528921546    8.55890200331660
H        -1.21366558955850    4.86909762079631    8.89390423053309
C         0.29613747314210    5.62551625350252    7.58329121494872
H         0.53884737022625    4.65690698628526    7.16699621901685
C         3.36247542233529    7.91922885124789    6.14946516910418
C         3.61396730317430    8.99163996963649    5.30343992265461
H         3.08749162319560    9.08365844316116    4.36577583381677
C         4.54775123831564    9.94723611393308    5.66700550953523
H         4.72741048308045   10.79286462194091    5.01802751117591
C         5.24575634493487    9.82862581369370    6.85719480081608
H         5.97262760263930   10.57838756444248    7.13371248477676
C         5.01602101303129    8.74501806211032    7.69116738391030
H         5.56775786316580    8.64569028537903    8.61425679252290
C         4.07916263302035    7.79348067170106    7.33910699337444
H         3.88948060740807    6.93944147322171    7.97733026559476
C         4.91574192186530    4.31036743014260    2.63511767374797
H         5.25249329010266    3.76968973362719    1.74525588734849
C         6.14987222866412    4.85656082467375    3.37865436281359
H         5.89936620467335    5.07894156458996    4.42577248184744
C         6.57146523578083    6.17002103666043    2.73021718608732
C         6.40909060872631    8.49995089179357    2.96522400664449
H         7.34580251533941    8.52266232941602    2.40536879190622
H         6.44904344116411    9.16729734824277    3.82246045031664
H         5.58610585392872    8.78012596914380    2.30460329884214
C         7.30867023232165    3.87736615632658    3.31393079830825
C         9.35447702299109    3.31540412191360    4.29302601445628
H         9.06446400373920    2.27540839362179    4.45627220692025
H         9.96932249275521    3.67741422683338    5.11250809493598
H         9.89027986986134    3.39103117613754    3.34517610019134
C         5.16201694107959    2.01576965617069    4.38411523889938
C         5.44100657432113    0.91947279470333    3.57437988379847
H         4.89925856318982    0.77983397044408    2.64998697966480
C         6.41786691251223    0.01913013195641    3.95295203758884
H         6.64039891255381   -0.82854507873428    3.32199889768610
C         7.11663894074437    0.20500574544865    5.13589829835381
H         7.88052979821876   -0.50212169359769    5.42619200633670
C         6.83625108252626    1.29280999053436    5.94605713363135
H         7.37699427373614    1.43583787530345    6.87027134327916
C         5.86116781363566    2.20007189408349    5.57123956457960
H         5.62230879312655    3.04200520629521    6.20728938699301
C         2.78688391874071    2.31742679907003    2.87342140941935
C         2.06601046016382    1.34633926021340    3.56766280516045
H         2.25422635264260    1.21033544754083    4.62540207871769
C         1.12651167671922    0.57535405218560    2.91186993886243
H         0.57140680174914   -0.17716133807366    3.45219719345746
C         0.89818480436884    0.76932912753404    1.55809303685205
H         0.16889389139679    0.16292467886657    1.04100011805396
C         1.60075837910699    1.74412381986455    0.86958784950938
H         1.42188301007432    1.89431976928581   -0.18582455711485
C         2.53735056357733    2.52688500386226    1.52323559925242
H         3.06756346861798    3.29538150301995    0.98185534909368
Cl        3.07663887228652    3.74499531178725    6.85709397394047
O        -0.03979651166390    4.98344159991617    2.21329917616583
O        -1.01060271993972    7.00433144076946    2.12438135608228
O        -2.05211180484931    5.82262750572898    5.25663435929389
O        -1.27467765457512    7.92035623212104    5.37131954342845
O         6.17716283542391    7.19581179833456    3.48113355074606
O         7.15597168703362    6.27105185194428    1.68673147381976
O         8.19777409208011    4.14348767144521    4.26990615685295
O         7.42809593037182    3.00016133709723    2.50374870553490
P         2.18324502566977    6.58912666044004    5.79423034530618
P         3.96709974001167    3.27850443049713    3.85798440847006

