52
CSD_code = VUNPEA | q = 0 | S = 0 | Stoichiometry = C19H28AuF2NS | MND = 2
Au       17.57061279423856    5.72686070534519   -1.00329823835096
S        16.96163813914844    6.79722198928405   -2.92015141644521
F        17.10846807919937    8.04105889022110   -5.56710174778717
N        18.16829159777394    4.51488652877580    1.74419835143626
C        18.32308399993520    4.06025487830549    3.05133929036050
H        19.07949563632869    4.68329645118944    3.53949368619499
H        18.68623064820522    3.02820469631553    3.01411011327829
F        21.61525412691730    7.13655355005826   -6.49708067944282
C        16.99579399178328    4.13535776682502    3.81245394819603
H        16.25246379110760    3.52055107655225    3.30093253003735
H        16.63784790447725    5.16696692004850    3.80770695730254
C        17.16410928276091    3.65435408623535    5.25125782593023
H        17.51907984423510    2.62120465593203    5.25208854534837
H        17.91788889891807    4.26516221631672    5.75354290458379
C        15.85159589592208    3.73751474017456    6.02726823183136
H        15.09859468716645    3.11969847076660    5.53332737172624
H        15.49110043736946    4.76843279848916    6.01749658396613
C        16.01566345274740    3.27553819058668    7.47321176964917
H        16.37086684290601    2.24254430546649    7.48573864174388
H        16.77286546306260    3.89076876084422    7.96485745500821
C        14.70744753547352    3.36901412260478    8.25445419113512
H        14.34585102563218    4.39962328076780    8.22976436723273
H        13.95267028950005    2.74348237792377    7.77239710012093
C        14.87513180706291    2.92963787329088    9.70692164736425
H        15.23203011784059    1.89729707132646    9.73386705357054
H        15.63373202814300    3.55284660427803   10.18663750839487
C        13.56951025511596    3.03326921271180   10.49131308136470
H        13.21010322797153    4.06454975800035   10.45771736935143
H        12.81205815745130    2.40514074604541   10.01653201676213
C        13.73908539709946    2.60649027732259   11.94726341822117
H        14.50120484482901    3.23115441688844   12.41958166024806
H        14.09290564205565    1.57321743844791   11.98204527578686
C        12.43605925463915    2.72047779761476   12.73451313441221
H        11.67393618596499    2.09449416046952   12.26411679479494
H        12.08203616815983    3.75362106456112   12.69823910709391
C        12.60523753962736    2.29794414089917   14.19182968188229
H        12.95499739509476    1.26364604211391   14.22878697381289
H        13.36951942600373    2.92170590609808   14.66118545485625
C        11.30281839149176    2.42004242747319   14.97317197935598
H        10.94859666053262    3.44859945248206   14.96559339323370
H        11.44558489797313    2.11393315008095   16.00692510011862
H        10.53284438178857    1.79071819847537   14.53204744682029
C        17.97359796854883    4.90240400533339    0.67060611258985
C        18.37512969790849    6.86762490650115   -3.93543839999673
C        18.27799880579878    7.50123734520978   -5.18074923124481
C        19.34687919214888    7.60000203834426   -6.04640474712318
H        19.23562585432781    8.09534659151153   -6.99713772441827
C        20.55597065769071    7.04874065019342   -5.66035373784265
C        20.70274396008135    6.41340131784559   -4.44274215750399
H        21.65555065051278    5.99155787032197   -4.16491518060678
C        19.61475667226906    6.32923237178803   -3.59498104697602
H        19.72104039705934    5.83291570534353   -2.63937976737309

