46
CSD_code = VUNVUW | q = 0 | S = 0 | Stoichiometry = C24H19AuBrP | MND = 2
C         2.87025133968395    8.80993376198168    1.78428502156894
C         2.96383526740718    9.29182817306931    0.47187407635390
C         3.20123219154569    8.39083719351825   -0.56129745564052
H         3.28181396616769    8.76568694038563   -1.57136750729967
C         3.31408278257740    7.03676614113102   -0.30838994555853
H         3.49066687716166    6.34974306456111   -1.12241071856392
C         3.20069074189821    6.56103035591050    0.98877366924025
H         3.28530574145337    5.50343311785897    1.18971636179563
C         2.99252788652223    7.44350653111611    2.03107614189139
H         2.93203250691138    7.07413869250754    3.04616721945816
C         2.81545582480930   10.72585496391003    0.17861483359383
C         1.65913788467694   11.40320569989175    0.55995217375130
H         0.84963396908854   10.85515797824276    1.02530915615016
C         1.52741843836677   12.75742485012780    0.30612007870031
H         0.62763162266292   13.27275210410397    0.60925803663244
C         2.54932325039950   13.44902134220832   -0.32186923408103
H         2.45968745830168   14.51012624320990   -0.49443586725497
C         3.69545533453560   12.77885992174286   -0.71785174678094
H         4.49654692959514   13.31961323876452   -1.19754539961096
C         3.82582738949173   11.42316972904604   -0.47916351901945
H         4.72598308849198   10.90138694368545   -0.77219762141922
C         0.93363827653801   10.07619099699759    3.50702130100084
C         0.43687016226727   11.25338758529404    4.05660610639359
H         1.11272537744291   12.08004921553898    4.23862634206382
C        -0.90865774195074   11.36201133689131    4.35645176665292
H        -1.29319377317387   12.27629258367863    4.78298982061995
C        -1.76028027701115   10.29886237847579    4.10260485581527
H        -2.81177965977156   10.38428975974298    4.33231696940401
C        -1.26783095830653    9.12718126428013    3.54893083992525
H        -1.93487836793855    8.30166846623588    3.34845289944775
C         0.07694224627499    9.01044197795690    3.24902976690363
H         0.46366544751382    8.10034138936400    2.81087466811534
C         3.36131073374139    9.05085119436560    4.56231488845321
C         4.72200743016401    8.74730618816856    4.52379524804526
H         5.30196475344225    9.03047846396364    3.65319801566832
C         5.31601248751073    8.08966082452230    5.58187222676103
H         6.36820283949927    7.84986223325627    5.54641725029075
C         4.55997749420535    7.74700369700120    6.69339844892541
H         5.02447315237054    7.23672327644617    7.52372865063146
C         3.21370653060368    8.06576387417375    6.74375877540187
H         2.62825649600877    7.80633382263907    7.61351607526476
C         2.60997758961654    8.72052025192930    5.68360452716875
H         1.55914465427558    8.97175804788703    5.72716277256754
Au        3.78744008994413   11.96214894868900    2.93487978113019
Br        4.88303388784019   14.03663612417035    2.63190088666217
P         2.71193063714173    9.99335911136211    3.15382936277777

