60
CSD_code = VUNZUZ | q = 1 | S = 0 | Stoichiometry = C19H33N4O2SZn(1+) | MND = 4
Zn       15.93805119703119   11.83829151762273   18.11908967973782
N        13.90498692177412   12.39862401400363   18.48231808627964
C        13.07675878152045   11.17616535105445   18.40409814509131
C        13.22870574202058   10.29248550183396   17.16449900357859
C        14.55541736777649    9.54323836069130   17.02544537297425
N        15.69081807600471   10.41492538104284   16.67964131839490
C        15.57467782581524   10.96061546654069   15.31910013749730
C        16.81623463566695   11.70693331486549   14.83104308354925
C        17.41309663562282   12.76520455454380   15.77825333484201
N        16.47503901654460   13.29901201849485   16.77987682270501
C        15.49438606123092   14.23685596396372   16.21889031342279
C        14.39945413904876   14.55345471603508   17.23413210069798
C        13.43183083343013   13.39409357427549   17.49708137264466
C        13.70555894515926   12.98940404249181   19.83063582212073
C        14.36079363157303   12.27461001796864   21.01148856580139
C        15.87836505880657   12.42309907373129   21.04411707604546
N        16.46976289292365   11.71300737068480   19.93013095121121
S        17.95869747808054   12.16292031062795   19.51910388791775
C        19.11658638116432   11.70216338409857   20.77770275184447
C        19.94957491995896   12.65313496836724   21.33487275526349
C        20.83657949116165   12.27143623516909   22.32487275143837
C        20.89259690364968   10.94932827306459   22.76024905098546
C        20.03795911164092   10.01296395091881   22.18347626366343
C        19.14723049507944   10.38466942425150   21.19280690608050
O        18.15819038268888   11.35522072492165   18.31104094730067
O        18.01359067400060   13.59087007912149   19.26129236944106
C        21.87097818342286   10.54526385491671   23.81503058777833
H        13.32416303632146   10.56603972711057   19.27285258746256
H        12.01873835542191   11.46521834196857   18.48250312919616
H        12.44879322150758    9.53189352189958   17.24588764010371
H        13.01538156626536   10.84948575803737   16.25333833294149
H        14.78929180677878    9.05078908767164   17.97259149469227
H        14.43118685911226    8.77129666739837   16.25328002847308
H        16.53784597047254    9.84641690238274   16.70209704829512
H        14.72046035066124   11.63660847277438   15.30069693659700
H        15.36928414396657   10.14596253028913   14.61087784644485
H        17.60432882731279   10.98503098718730   14.61439645538802
H        16.54122433699432   12.17166147412808   13.88204195214236
H        18.22898483407508   12.31269470599271   16.34190999910437
H        17.82553080132799   13.58419918166783   15.17754544112238
H        17.05997887555739   13.82506899408409   17.43912128650744
H        15.98818963559658   15.16927864928329   15.91793816182728
H        15.05251967195592   13.79482994874909   15.32339468333827
H        13.81537949163366   15.39149016101876   16.85040357445602
H        14.87337914019103   14.88190888238710   18.16004458838147
H        13.24520585549113   12.88508134832147   16.55162732320337
H        12.47147448545728   13.79998599084639   17.84317993108542
H        14.10096133964711   14.00516927515202   19.81095639437019
H        12.62359986665513   13.05446158497922   20.01545969638761
H        14.12062956548421   11.21194799441891   21.02289226298052
H        13.95098831951228   12.71789742567570   21.92058876992841
H        16.26472586213307   12.00679883897542   21.98430776307913
H        16.15878175316205   13.48599469775376   21.00290626221507
H        19.89068967499098   13.67113373112563   20.98380283482560
H        21.49438484544932   13.00484699969385   22.76621323350491
H        20.07239406880068    8.98587526036166   22.51432480329780
H        18.47797130720222    9.67431015359955   20.73432514159563
H        21.94576950557664   11.30814370197014   24.58622007899110
H        21.58788469638798    9.60175070636567   24.27319816115405
H        22.85955614608405   10.42463685141629   23.37208669860810

