38
CSD_code = VUPBEN | q = 0 | S = 0 | Stoichiometry = C8H18B9Cl2Ta | MND = 12
Ta        7.01301008740149    8.08941508727896    5.05372023416745
Cl        5.36817037922985    9.21714156894673    6.14350787876356
Cl        5.90727645167415    6.11971394216407    5.31154996768675
C         4.84779442101082   10.39184013767005    2.90122152343768
C         3.92711117220802    9.29561792602506    3.05933103317030
C         4.61821164627348    8.13316212301692    3.06763257272531
C         6.05674069141580    8.41705368612000    2.96690319187274
C         6.10148748783144    9.88164338062463    2.80552021103816
C         4.44091869471379   11.82484666926073    2.85930202374519
B         8.59205434314170    9.69398453487429    5.43318102165400
B         9.03188362248679    8.54996941092797    4.13232639375461
B         9.03625607873309    6.98445527113415    4.97283883688654
C         8.80432982726436    7.30363823535159    6.61548090246784
C         8.55362555697018    8.80350668732801    6.86809627865063
B        10.39866292599262    6.97632223504102    6.15415728398402
B        10.58484711949447    7.81529135431399    4.61275935674292
B        10.29376431013078    9.55572438079295    4.90519869015179
B         9.93899504480381    9.75065558440327    6.62139011827575
B        10.07490248659557    8.17553066491629    7.40253431840329
B        11.18608884507185    8.57946051667694    6.11176786078564
H         2.86165738606989    9.41192778230943    3.15386275226037
H         4.20820407294068    7.13789051184082    3.12758496182964
H         6.59558998048289    7.82907793353578    2.22172387907421
H         7.00574932902995   10.43699540957357    2.62000336697578
H         3.73003071917591   11.99545444403108    2.05117673087294
H         3.95536739450387   12.10749407399679    3.79366027086452
H         5.30744230005738   12.46383131394025    2.70790663933862
H         8.00363893877446   10.72283043160432    5.38427664603674
H         8.95083151964178    8.72201497266512    2.96352934307310
H         8.81960616773249    5.89356223845958    4.56365482700886
H         8.28920428127608    6.59496120500094    7.26573981327066
H         7.88385147931941    9.06914186157784    7.68738017163864
H        10.87762361885049    5.94754524556047    6.45552301141854
H        11.32335455763176    7.42185887598753    3.78826947049033
H        10.82870932377197   10.40128351125439    4.28957076251063
H        10.08523737583240   10.71985557111431    7.26812670467447
H        10.21825025449621    8.00630979556774    8.55508706346968
H        12.33042010798323    8.73219142504034    6.32140388679531

