26
CSD_code = VUPBAJ | q = 0 | S = 0 | Stoichiometry = C2H11B9Cl3Ta | MND = 8
Ta        1.33908096212445    2.34779725045039    1.43745397436500
Cl        2.35153534521307    0.30851112692705    1.65438626701624
Cl       -0.65856488883540    1.30167266922344    1.06842900468312
Cl        1.77545532799567    2.37033719446555   -0.75959397322114
C         0.38409423648517    3.05163174497375    3.48391293544751
C         1.84019949727536    2.59662492049030    3.73402161775645
B         1.71753695480806    5.23976337797047    4.49587395467251
B         1.14388193524572    3.64072221929003    4.91660135916958
B         0.12572997776281    4.67585250446632    3.91956973306885
B         1.16879775067672    5.59928753624382    2.82993758592564
B         2.84841504244165    5.07374976555917    3.11684439458319
B         2.81151394309181    3.83569501473148    4.37814885249398
B         0.28643436365633    4.17740420953944    2.21175147746723
B         1.96385049895934    4.49012820725973    1.67801584409751
B         2.92902039449858    3.35095830231750    2.66337510406907
H         1.83973896285980    6.07525629771267    5.30879988173240
H         0.82115564834424    3.16495774851776    5.93865791699298
H        -0.92867909703567    4.99186001055083    4.32540648996016
H         0.89205268619744    6.69206560978476    2.50391612300996
H         3.76800204015364    5.79256778514512    2.99585604757920
H         3.67874651344338    3.54837999743987    5.11424156158176
H        -0.73246387291830    4.29159488358231    1.62021969222651
H         2.29218311549432    4.98357845797482    0.65471685660579
H         3.95876474626720    2.81947429557391    2.41982661085768
H        -0.41052307931642    2.33767677529394    3.69588896867469
H         1.99514099511087    1.58705209451566    4.11134171918413

