41
CSD_code = VUPCIT | q = 0 | S = 0 | Stoichiometry = C15H22AuClN2 | MND = 2
Au       12.43350519349292    7.25670821623301    3.92963327332645
Cl       12.43804894107192    8.89446757537240    2.39502735990093
N        12.42905668784257    4.47154994669772    5.05108107620246
N        12.47036137099461    5.95406193707497    6.63579808830497
C        12.44208405963421    5.79587721500899    5.29817458102273
C        12.44828525317211    3.76695168235983    6.23356769954450
C        12.42817321325927    2.40944156137916    6.51941941607758
H        12.39882225290617    1.66711245278762    5.73780441517503
C        12.44074944473832    2.04542914326627    7.85169534287673
H        12.42651949035361    0.99870685415570    8.11335429983498
C        12.46787878230413    2.99794832665964    8.86991424965307
H        12.47422920786981    2.66720893809212    9.89699706057178
C        12.48318605399332    4.35147720018511    8.59542362664630
H        12.49564281112520    5.08205462070390    9.38848064158487
C        12.47520940309617    4.72698418313141    7.25979929977732
C        12.44903374865186    3.86948313782073    3.74331770250793
H        12.14795551277897    4.63574719333760    3.02439127546458
H        11.71803910270545    3.05546744948793    3.72472763383414
C        13.83863566202636    3.33689693859026    3.38108251063700
H        13.76480799860055    2.82975694618213    2.41766049602160
H        14.15407009578851    2.60123064115975    4.12508970149873
C        14.88466687166249    4.44538648388805    3.29090482233485
H        14.97726157196577    4.94105167059515    4.26023892435106
H        14.55636480984245    5.19590386996708    2.56926410914706
C        16.24410859942510    3.89753373615265    2.87607660442080
H        16.59915581759637    3.16360634191191    3.59706337308902
H        16.97321056333993    4.70115857158347    2.81611070746679
H        16.18117927868153    3.41875260960926    1.90161857650678
C        12.54274532760097    7.21749157682844    7.32258853436365
H        11.83507767396680    7.20001786042534    8.15697501873123
H        12.24079753735755    7.99387219933224    6.61499668706452
C        13.95607019495987    7.50685696684163    7.83694526749345
H        13.92267240650727    8.43289180011047    8.41322217787233
H        14.27262642875651    6.70443247634563    8.50785913059557
C        14.97126812025109    7.65063057894676    6.70567794577809
H        14.64006266449117    8.43181329557217    6.01872768580632
H        15.02345577122973    6.71730079653786    6.13994236034894
C        16.35683048267643    7.99226505120670    7.23835455398208
H        16.33375866910546    8.93107153605017    7.78687448250178
H        17.06278436907965    8.09227159632661    6.41824167469166
H        16.71470855510098    7.21212882209777    7.90757761299353

