52
CSD_code = VUPJEV | q = 1 | S = 0 | Stoichiometry = C19H30ORhS(1+) | MND = 9
Rh        4.72200226740172    2.08836147940645    3.61178313458436
S         4.33566529051541    0.28801989012745    2.07335095671542
O         2.91447866488129    1.57954743261501    0.69352044482908
C         5.28671050898731   -1.13277372233697    2.72845721313183
H         4.57088823528694   -1.73641782071066    3.27772892894114
H         6.09536042143992   -0.82381304791079    3.38121071669170
H         5.65875149292155   -1.71844571178425    1.89238402548371
C         5.60477511061550    1.48585776318120    1.75245819702399
C         5.24431792959830    2.84899577573210    1.64301790188574
C         3.90192176937029    3.28229401319334    1.98299749748709
C         2.74537730309925    2.56768156804286    1.39609005670880
C         1.36726485352390    3.11508906494822    1.63712670421043
H         1.19437497078604    3.29831752487610    2.69428312645468
H         0.63969926779261    2.39885307409452    1.26495310310207
H         1.23830606233004    4.05054641544291    1.09607998635748
C         6.97195256673462    1.02824279047257    1.34865782936621
H         7.12597221789044   -0.03070323014844    1.52341476743685
H         7.74742366550627    1.58082948265807    1.87911583961724
H         7.10604873042413    1.21051668165757    0.28061260615401
C         6.30475945560654    3.82918012116374    1.21867082942446
H         5.88529923964438    4.81311151035570    1.04216965627522
H         6.74965331132081    3.48325822803390    0.28656041099906
H         7.10453439728964    3.91876119265993    1.95326090528860
C         3.68678562599944    4.76084805967516    2.23106104829703
H         4.53335164402886    5.20432368236447    2.74965897285487
H         2.79195825323012    4.93004062745024    2.82172653731928
H         3.55486066592679    5.28039106814416    1.28033347867899
C         5.57585316631499    3.31939070013485    5.24178468486542
C         4.14168886134901    3.24565346637526    5.41240007362171
C         3.79613309260323    1.87933559581392    5.58307693618926
C         5.02571871160519    1.10799341771010    5.58360779029400
C         6.11839173153049    2.00231217423747    5.41608179595159
C         6.38365479935691    4.57346481619321    5.20790418220171
H         7.29820158693129    4.44673829250068    4.63243652712795
H         6.66831732596696    4.83492545360221    6.22827824833119
H         5.82088686221484    5.40657531412166    4.79565819817735
C         3.22721423135141    4.40664304903124    5.62089725411359
H         3.59881129037396    5.30887133170795    5.14461695476041
H         3.15755594786873    4.59989367450254    6.69252702954796
H         2.22387238768828    4.19847307552206    5.25745250106168
C         2.45353048906678    1.34354321334618    5.96044590989800
H         2.29208027706841    0.34772574392430    5.55425004172661
H         1.65516764009707    1.99378425549630    5.61311156925431
H         2.38777031236719    1.27807453772777    7.04755693908681
C         5.10777612862309   -0.31605629227144    6.02135154974644
H         6.05155492158142   -0.77841178605781    5.74549030504794
H         4.28689700955052   -0.90802296185694    5.62447419339456
H         5.03321013096518   -0.34052772904465    7.10984212130755
C         7.56900898016837    1.67292817313789    5.54622777346262
H         8.18272491650889    2.31231281576049    4.91597696056077
H         7.77155231808196    0.63492429090384    5.29471137179207
H         7.87733295862998    1.83254146407857    6.58045421312818

