29
CSD_code = VUPMIE | q = 0 | S = 0 | Stoichiometry = C7H14Cl2N4OPt | MND = 4
Pt        0.73629601348421    3.75380398961506    7.35997794365925
Cl        1.87587059213910    3.48844568182305    9.29888017466475
Cl        2.09622637801392    5.40809195883480    6.69472381987941
N        -0.17802047887985    3.99660869188028    5.47276486298636
H        -1.13093104323247    4.34465614880885    5.44231861865166
H        -0.12924135302531    3.06771530174365    5.05383678289555
H         0.44261114238208    4.64011650593501    4.97930069643838
N        -0.95597752939044   -0.10741721905449    7.59432774364887
C        -0.89663201205483   -1.26134902147069    6.71637228722185
H        -0.04616433586519   -1.11117865288504    6.04779452479714
H        -0.72923788635460   -2.15297226182181    7.32473200906286
C        -2.17680900607253   -1.39659445113407    5.89895020533644
H        -2.11055087480442   -2.26876370554832    5.25518661164406
H        -2.31342731481144   -0.51555368215486    5.27730113605702
H        -3.04183025906638   -1.50567317242660    6.55018359913760
C        -0.46519000279891    1.10505538141396    7.11776727286247
O        -0.03581672116944    1.19321639621741    5.97973284433382
N        -0.50229871179254    2.16735158411643    7.96284907193803
C        -1.04590098958063    2.10146639107340    9.17397937544361
N        -1.11462368213174    3.22720161202000    9.89206393609267
H        -0.47631274616259    3.96566438085665    9.58909156969260
H        -1.30346050290614    3.16626301518162   10.87822294347461
C        -1.60507284342723    0.87305858627189    9.65291345887307
C        -2.21783283084083    0.78561796221574   11.01550871379059
H        -2.59434914815628   -0.21777144389362   11.19365907796850
H        -3.04472929881303    1.48813133658212   11.11141095812344
H        -1.47868712237637    1.01504453936662   11.78290008812184
C        -1.50754297155234   -0.19765557519718    8.82398417031606
H        -1.86606446079058   -1.17508027834233    9.11436550289037

