72
CSD_code = VUPMEY | q = 0 | S = 0 | Stoichiometry = C28H40N2SiW | MND = 8
W         9.10854340775338    2.72463523028869    4.92396557429930
Si       10.16343075375758    4.91119656694257    2.53439639112046
N         8.52619762458962    4.21945561204826    5.73141182254425
N         8.03283866552196    2.40709995384791    3.50855044692283
C         8.68734272137918    1.29120493223306    6.69630842891072
C         9.95526203805952    1.89175802032902    6.97876965546808
C        10.87074967898977    1.48291872427957    5.96996307337548
C        10.17395422887224    0.61449414455593    5.06340246016754
C         8.83482050861243    0.47800318083582    5.52515888746869
C         7.50014483099195    1.29834495220341    7.62147071825219
C        10.28010376588580    2.66462926696449    8.22804933212704
C        12.36265880018820    1.67220584267101    6.02401520514064
C        10.79871178145643   -0.21248968217622    3.97198106357798
C         7.81961565012430   -0.49583825277901    4.99302052094453
C        10.77201628746100    3.70638877454401    3.88075674632920
C         8.49604598848798    5.73672282232154    2.97467635904964
C         9.98039230666990    3.91192239051128    0.91019315414949
C        11.44908698352832    6.30280670839017    2.22248691086424
C         8.10484249424557    5.20980118852389    6.51833042072007
C         8.90130773880656    6.34828400795479    6.75873426027579
C         8.46665970436907    7.35159362838338    7.59647990939449
C         7.23718936310533    7.27681607058363    8.24069993529172
C         6.44138008303787    6.15832538118779    8.00628797878327
C         6.85116505576325    5.15034310494810    7.16480910063611
C         6.76989285223007    8.36118609831624    9.16575218025865
C         6.88279946659528    2.11453650647777    2.89734647281936
C         5.68530910180336    2.22028313624644    3.64126219693415
C         4.47291966764615    1.87410575414051    3.09281719329089
C         4.38005840616983    1.42176649807009    1.77943887400161
C         5.55057190861138    1.32848232196641    1.03404294841299
C         6.77641013670677    1.65774484044915    1.56978181632672
C         3.05588040648241    1.06808615879750    1.17029995453691
H         7.43928863931637    2.23833784271106    8.16868736916242
H         6.57033717268522    1.15810362531946    7.07090252337750
H         7.58732014149362    0.48721577537992    8.34898169184845
H        10.34657008159895    1.98728412245758    9.08268936848735
H        11.23171442563886    3.18354307737432    8.13224671191004
H         9.51088730190907    3.40741456836853    8.44371699312866
H        12.80436503018448    0.91368986463644    6.67497331772344
H        12.81556470816001    1.57155191709869    5.03943524764881
H        12.62823597166862    2.65110317035783    6.42106857873784
H        11.09432847791159   -1.18981945983630    4.36198251619687
H        10.09605412971422   -0.37405239544763    3.15489920860028
H        11.68709509684733    0.26871031527650    3.56539501116755
H         6.80503184822856   -0.17712496025775    5.22680332738001
H         7.89634359590765   -0.59375827402295    3.91068584091523
H         7.97976025127515   -1.48164126217183    5.43653003471240
H        11.38880083390318    4.25382236033353    4.60745654209267
H        11.42847267081804    2.96634090034019    3.39976433841428
H         8.59732676941771    6.41429577128649    3.81710878690847
H         8.09864466753344    6.30743673490130    2.14032137846271
H         7.76531331322833    4.97629757438588    3.25211498636074
H         9.44150689035322    2.99033429856651    1.10676269858188
H         9.42505823748835    4.46672549348700    0.16165366951731
H        10.94370513674451    3.65377862852500    0.48091407037117
H        12.42044787402279    5.90064248584275    1.95250719611528
H        11.12833188265324    6.94999582461538    1.41334266785010
H        11.58388295875296    6.92412728017102    3.10205287376877
H         9.85919174123922    6.41397271170564    6.25993887285408
H         9.09858132532485    8.21486621483964    7.75807679375545
H         5.47757903487906    6.08574682323212    8.49268184865718
H         6.22083369953779    4.29041835153353    6.97710598328254
H         6.70593294965501    7.99022375933369   10.18958820920366
H         7.45430432633057    9.20606203748846    9.14943324783698
H         5.77901562817524    8.71079676237218    8.87763726993017
H         5.77193573949827    2.58765915503751    4.66079585787058
H         3.57378671750683    1.96097144790079    3.68865839131636
H         5.49665503806301    0.98295041498302    0.01022338286479
H         7.67290278120385    1.57356621392241    0.97157443650387
H         2.29935290884732    0.92899899155111    1.93933830515211
H         2.72080749183329    1.86455186454934    0.50416056091668
H         3.13143010256243    0.15394608778218    0.58312989803042

