34
CSD_code = VUPQEE | q = 0 | S = 0 | Stoichiometry = C11H13Cl2N5OSZn | MND = 4
Zn        6.64202431256623   -1.26833277830349    2.90525378990950
S         3.98681524653992    0.18118724066727    2.63275035071734
Cl        6.90063343890072   -0.06463728344071    4.75943811749344
Cl        5.56339338371302   -3.15947341511855    2.57834347472459
N         8.35525666706208   -1.82565868881990    1.62711196358401
O         2.95583120009300    3.51772224790525    4.27372813674477
N         6.19095379042892    1.51619470902740    1.75108734994802
C         3.47699307638080    2.58477580408806    3.72147788285910
C         5.08730050112082    1.53297717577797    2.39367698974234
N         6.73775743808848    0.29878847728472    1.48499069332873
N         8.11830784673214    1.32197843935069   -0.08195757136823
H         7.69253544386765    2.19581183840786    0.19365263325775
H         9.05068785862880    1.36279141836534   -0.45571231063422
N         4.60390269903577    2.68136001870255    2.94606417175782
C         5.31612821441495    3.93721857683799    2.80135315906435
H         6.37775817996595    3.73844059125545    2.96270478206844
H         4.93766880165629    4.59946696327702    3.58311162323078
C         8.45394612874935   -1.01894325034432    0.56796142954613
C         3.00590535059364    1.15055294836360    3.80638760274071
H         1.94599591883755    1.06361141735536    3.57160114431908
H         3.17804187033260    0.77043461476546    4.81578385900420
C         9.18273485436959   -1.37850566036273   -0.56327952160526
H         9.22331655246604   -0.72325888669318   -1.41922826865095
C         9.70323457804300   -3.43960088170947    0.52237852948002
H        10.17694892482626   -4.40738293419581    0.54491714503656
C         7.74628798790020    0.26175361175620    0.67758186819962
C         5.08072656691907    4.54580969576991    1.42530663405183
H         5.64587538210228    5.46847035668496    1.33082725794566
H         4.02572091130105    4.76881861910462    1.28736870858177
H         5.39780527396233    3.85460970832633    0.64832017741219
C         9.81453818945107   -2.61089101852198   -0.58274628825629
H        10.37746121424555   -2.92058079400400   -1.45045556886898
C         8.95358125907947   -3.00274009969162    1.60522856622344
H         8.82083093762187   -3.61646878186582    2.48447148840458

