35
CSD_code = VUPRUT | q = 0 | S = 0 | Stoichiometry = C11H19Cl2NNbP | MND = 9
Nb        1.05506507385979    2.81073985500978    2.80973731023116
Cl        0.49784768437363    1.13322125353335    4.38261432999118
Cl        3.09197012540886    2.89075923932589    4.13866079533978
P         2.22162448804026    5.17678591351954    2.55354169044588
N        -0.39784514525713    3.78372748283550    3.12783930974422
C        -1.72913003522212    4.10502193731250    2.84899771240696
C        -2.30276991872062    3.00753297002553    1.91965899697018
C        -1.53532495470857    2.88588586543074    0.59088882750351
C        -0.13650030623752    2.34803959581837    0.73932081957884
C         1.06153500557392    2.98625457677767    0.33531274666573
C         2.15070788963143    2.10125720252203    0.57263317269529
C         1.64141444216530    0.93744128467574    1.14367041105617
C         0.23367542506578    1.08635626992688    1.26742050304768
C         1.43873571201722    6.46882981140717    1.50303033493322
C         3.98522178612544    5.36706785140740    2.10981735670804
C         2.12213468451219    5.99187747236714    4.18472643485655
H        -1.79393600016998    5.08524170799157    2.34650862613672
H        -2.33657898803802    4.15041882840110    3.76564808603549
H        -3.35047589066124    3.23278105852772    1.71203241977480
H        -2.23980745195760    2.06012802369796    2.46091569275947
H        -1.48924476614146    3.86821372477087    0.11114377136147
H        -2.10159255023169    2.21541690781474   -0.06484611572721
H         1.11284124482298    3.90322736863790   -0.23851887506156
H         3.17728761637403    2.27480799492280    0.27492023732031
H         2.19805374913349    0.04244629163526    1.38986831748092
H        -0.45164783137297    0.29980931122435    1.55886704970406
H         1.88059943547775    7.44366172097983    1.70662120509596
H         0.37416442207993    6.49413934843199    1.72846322461192
H         1.57220186711598    6.22882550305865    0.45031464170382
H         4.29016185128357    6.40173403383444    2.26594573071675
H         4.57588115113513    4.70474000234124    2.73944147633657
H         4.12845610589771    5.09808239382099    1.06381887205806
H         2.48315103704831    7.01891600075842    4.11473479431794
H         2.72082534858086    5.42840658046177    4.89896697609503
H         1.07909769299309    5.97420461679475    4.50768311710515

