81
CSD_code = VUPVOT | q = 0 | S = 0 | Stoichiometry = C30H47ClN2Pd | MND = 4
Pd       -2.47553944768096    9.42166055369608    2.71556318786247
C        -2.28412363156524    6.06211562757490    2.52885106425161
H        -2.62811186461592    6.94537869903149    1.97467635603717
H        -3.10307976724856    5.68491792189145    3.13665414031673
H        -2.00331266749765    5.29523176742145    1.81045270744148
Cl       -2.48018615890154    9.23246219390835    0.48730100973388
N        -2.09706342561153    9.85739341949017    4.66262622852939
N        -0.22638994370258    9.16075464978231    2.80373312608771
C         0.27605391197091    9.62123128855331    4.11912200308953
C         1.64844903667372    9.67921039501660    0.56205179280427
C         1.34561181143268    8.30209212032903    1.11578850359847
C         1.27020174886698    8.62647027806950    4.72722818137454
H         0.78336351126134    7.69219317832844    4.98821962213145
H         1.72335035609208    9.04408595702738    5.62174112292570
H         2.06087446820712    8.41184715272790    4.01170743586594
C         0.41751754687740    8.06584958947192    2.14276428179874
C        -0.88897325435097    9.87516967853500    5.07862657734941
C         0.73240046088727    5.69612377612985    1.87245699135549
H         0.47612591572508    4.68165180494064    2.13398580736726
C        -1.08399134243915    6.43968593354751    3.41094213180927
C        -3.75547491638782    9.40657378699097    6.40443508391272
C         0.07592066724407    6.75053896898722    2.49072464399147
C        -4.80286502313425    9.87761359072097    7.18143913235750
H        -5.27827450247982    9.22199261564434    7.89283131822346
C         0.99215836905811   10.97297639728281    3.91397122649743
H         1.86721577001851   10.82893162227191    3.28425130865088
H         1.33040233905000   11.39948403826829    4.85460247249980
H         0.32200340887037   11.69023592959383    3.43858405842893
C         1.69046160242204    5.92228224107534    0.90544654240424
H         2.19538728057906    5.09190331769133    0.43464107580493
C        -3.16402167180017   10.27829519790499    5.48159513920316
C        -3.64439239354450   11.58682185360151    5.30684425713661
C         1.96522220563050    7.21529755740946    0.51205423221039
H         2.67323550824745    7.38189686695765   -0.28464368328863
C        -0.55027835526279   10.17948716273808    6.51098925279873
H        -1.34970839374448   10.75414842073902    6.97556182586591
H         0.38443001787709   10.72351323235594    6.60841778306285
H        -0.45060496716841    9.24362715008268    7.06238685814630
C        -4.67782366524401   12.02162139288816    6.12277418674064
H        -5.05032374529575   13.02808415153137    6.02172246728766
C        -4.50847312308328    9.68165661216221    2.62257671475476
H        -4.95993742347503    9.88217477485925    3.59945575344704
H        -4.94855400879268    8.77213518750872    2.19668961078319
H        -4.72576967610770   10.51443569565913    1.94539154528883
C        -3.04721932823860   12.49187768227029    4.24981340395791
C        -3.33128906168766    7.95722594873856    6.45000644876814
C        -5.24510397405188   11.18151584515136    7.06208967847710
H        -6.04796812571757   11.53815677746382    7.68967891926795
C         3.15272441603040    9.96156774329139    0.51330766906856
H         3.61109257695239    9.78666017670487    1.48619745196976
H         3.32620385672148   10.99836333130504    0.23126037486881
H         3.65218991744387    9.32939715227505   -0.21500923007544
C        -3.47626782759250    7.31813540541215    7.83004841774413
H        -3.02006755380879    7.94192817271924    8.59629573793852
H        -2.98381126216959    6.34771756261710    7.83838381652389
H        -4.52107589255299    7.16128629298325    8.08396844946061
C        -4.15934333806274    7.20191057448757    5.40518817312009
H        -5.22055839722090    7.30909269622234    5.61840618383006
H        -3.90946781231837    6.14349224648694    5.41448932558183
H        -3.96193069980871    7.60893436879465    4.40881977797833
C        -1.92613032004277   13.34268862626443    4.85438944428825
H        -2.32477901352905   13.97624223853481    5.64493781604242
H        -1.48435688067416   13.98239895951071    4.09299010674620
H        -1.14362402103080   12.72000589363976    5.28173084597903
C        -4.09206864642760   13.39390492552612    3.59189945324947
H        -4.41796181560692   14.18505671504439    4.26324275771959
H        -4.95643794804453   12.81006836469940    3.28715465048639
H        -3.66494524624893   13.86089059861636    2.70721082723253
C        -0.77550533957510    5.32139986963436    4.40967866211807
H        -0.76074108979728    4.35146535578160    3.91970083471553
H        -1.54235220283732    5.29094648830056    5.18086716247579
H         0.18987914713788    5.47225619065354    4.89092624007433
C         1.00795008178452    9.80833528919819   -0.82295642359778
H         1.18118029994597   10.80345762049477   -1.22796078958144
H        -0.06545474290791    9.64109284655829   -0.75156275910113
H         1.42257634081861    9.07663133906164   -1.51133207118501
H         1.20701567786248   10.45967659870529    1.18776880360968
H        -0.23353359021154    9.95272702648864    2.15361936478036
H        -1.36120830404822    7.33809795327517    3.97809043904866
H        -2.62406690911324   11.85365368992349    3.44557092858944
H        -2.27755553922227    7.88668768276047    6.16095402989519

