67
CSD_code = VUQNOL | q = 0 | S = 0 | Stoichiometry = C20H40N2P4W | MND = 6
W        -4.81768943563206   -6.09926961051246  -10.62296922171804
P        -7.16641622766949   -6.26488783049263  -10.03280663135493
P        -2.48546609191269   -6.44633319680439  -11.15035184519915
P        -4.29450323000419   -4.77255988925160   -8.64746955096478
P        -4.97996074831634   -4.07160880483438  -11.97933560211153
N        -5.38162711483514   -8.54728681578903  -12.64471462850634
N        -4.82807617032606   -9.28949851014911  -10.11172947194068
C        -5.17075036669006   -7.61464659614130  -11.85635658634110
C        -4.82915947697104   -8.05819940897128  -10.29586471168028
C        -5.05937788212060  -10.27432385160564  -11.03053979342661
C        -5.01797186555410  -11.62242192208535  -10.70594292376585
H        -4.79303879851426  -11.90960817978265   -9.68926432021475
C        -5.26168861721839  -12.57756330296397  -11.67946299291246
H        -5.22700556661542  -13.62542696493392  -11.41800819528312
C        -5.54826652506433  -12.19884381600688  -12.98062742714663
H        -5.73699560551214  -12.95142057120046  -13.73256473504477
C        -5.59473004347135  -10.85800351302615  -13.32759012388535
H        -5.81616690341488  -10.55227441899791  -14.33949219578504
C        -5.35348691908362   -9.88654593131207  -12.36888414322038
C        -7.46642485947868   -7.10557256591395   -8.42449560874499
H        -8.50612464520491   -7.42402711610789   -8.33986109752354
H        -7.22825953147057   -6.43035204260144   -7.60401986315081
H        -6.80827546043685   -7.97235272693523   -8.37323094692267
C        -8.43801480658274   -4.92914693097540   -9.89062395636062
H        -9.31049398289263   -5.30445012054537   -9.35529856069123
H        -8.73995859819467   -4.61653044729024  -10.88764939160611
H        -8.03388908692635   -4.06932386457528   -9.36198632031419
C        -8.12451796405234   -7.40056521419658  -11.10974793342918
H        -9.17304563184752   -7.43282091947990  -10.81070131901462
H        -7.69509841681630   -8.39832456925393  -11.03588110777460
H        -8.04296911462377   -7.06643906626055  -12.14346267856762
C        -1.24362341418266   -5.16659176613975  -11.63156356580882
H        -0.25531315876311   -5.61692227120167  -11.72849330610186
H        -1.20819421357228   -4.38080925141534  -10.88004127908735
H        -1.53163068776561   -4.72656220555061  -12.58499126984632
C        -1.52810811783295   -7.29917447908498   -9.83357945246736
H        -0.55717254468694   -7.63075175223968  -10.20364362524743
H        -2.11380298287320   -8.15820474096074   -9.50698554449350
H        -1.38483565508495   -6.63079991451268   -8.98627729230676
C        -2.17903695681139   -7.63933402891697  -12.51064102188958
H        -1.11168193825004   -7.74007170658084  -12.71207886589696
H        -2.69768322078984   -7.30885124184436  -13.40935884572546
H        -2.58461631535031   -8.60663349250759  -12.21752567700436
C        -4.05777921438851   -5.86306154319851   -7.19183996601820
H        -3.85973533117197   -5.28670248636650   -6.28687550764298
H        -3.22485708838667   -6.53322105431447   -7.39539637204075
H        -4.95007102550263   -6.47047153643154   -7.05961388721655
C        -2.77826980954478   -3.73510445734382   -8.45450217985992
H        -2.70954818418945   -3.34213069646457   -7.43950069749100
H        -2.80559852673548   -2.90721308773787   -9.16056768727834
H        -1.90142409842547   -4.34533292060327   -8.66293234445645
C        -5.49985716976836   -3.57394375944305   -7.92953157981711
H        -5.11437337283614   -3.12857342985260   -7.01191624397498
H        -6.42976007244923   -4.09759610633737   -7.71508099954969
H        -5.70064608948989   -2.78822882822267   -8.65780298451353
C        -6.60616633465590   -3.27092442567849  -12.30331922282784
H        -6.51828589035594   -2.51362462291336  -13.08323585500186
H        -6.98004707681867   -2.80937487951102  -11.39103565070745
H        -7.30273827955188   -4.04447805243598  -12.62203186375060
C        -4.58829192584765   -4.55333388244382  -13.70463346221581
H        -4.74411929761187   -3.73002052049076  -14.40301983286701
H        -5.23107744273116   -5.39447679961590  -13.96227669270946
H        -3.55459209123653   -4.88979614288048  -13.75366640093827
C        -3.97016839058884   -2.52886550164848  -11.84828610030753
H        -4.11765776132879   -1.89981587734370  -12.72647874192120
H        -2.91721929164643   -2.78691898468327  -11.75956129420186
H        -4.27476734132279   -1.97935483407959  -10.95778080221378

