58
CSD_code = VUQNEB | q = 0 | S = 0 | Stoichiometry = C17H35N2P3W | MND = 9
W         5.32510094708230   13.97981441493094    3.27104048386093
H         5.79511479264527   14.07289772924138    1.68162114345776
H         4.43468621458703   15.28317129102778    2.74871395922576
P         4.09226757845220   14.59593672043659    5.31712581635959
P         3.44596699320773   12.75172078661931    2.31119475137321
P         6.97339748661151   15.82990957335757    3.45547292236462
N         6.78211915953540   13.33491360500357    4.87311887498897
N         5.02067916736161   11.74488887167180    3.71963020549959
C         7.13404521010827   12.81453003785740    3.63893117053908
H         8.15524274297380   12.95123052418167    3.27152145783178
C         6.19335712355586   11.97836635333104    3.02095049238727
H         6.39228598012796   11.42968398066948    2.10039084696942
C         5.24138460827204   11.52147709664023    5.08578439376595
C         4.61221101617768   10.53420771343873    5.82227787178777
H         3.90602934514786    9.86845390785280    5.34503686696001
C         4.88990651541948   10.41779420772619    7.18045393256356
H         4.38706194158807    9.65910561768275    7.76282575570759
C         5.80144637184597   11.26206394483724    7.78541630486389
H         6.01025841903830   11.16328405552979    8.84131385444135
C         6.46111302716074   12.23984907116586    7.04718003423306
H         7.18545137019554   12.89217098109569    7.51548740710955
C         6.17674935426321   12.37859401265740    5.69925977348314
C         5.01488765713141   15.55346582054877    6.58881584107995
H         4.36526354009033   15.80998568861351    7.42617020500573
H         5.40420427579389   16.46271920211724    6.13449163214806
H         5.84585782499499   14.94778984609138    6.94366370915838
C         3.16928617721179   13.50049085833155    6.48182934702650
H         2.54029397156678   14.11693116351015    7.12470545577172
H         3.86865784464595   12.94002054880370    7.09722275975544
H         2.54733508774342   12.79686049927584    5.93538608758129
C         2.74909823945994   15.80450485093728    4.97221208178793
H         2.30290118664110   16.16765465393283    5.89844966382859
H         1.98586686304873   15.32115206740708    4.36394201214731
H         3.15922798657319   16.63822038182191    4.40458541739756
C         3.76367789139840   11.37636204210011    1.13816021075178
H         2.83198392263072   11.11127964414699    0.63827308926515
H         4.15343194648743   10.51249598325568    1.67024906971965
H         4.48648890670157   11.71324797221358    0.39696540936402
C         2.42300768978989   13.79990977655958    1.17529023087113
H         1.60764415925581   13.24463655444135    0.71028082267894
H         3.08797426788890   14.19426835198070    0.40778748467545
H         2.01870299880564   14.64276744530438    1.73514648773902
C         2.07303291905966   12.02922549733752    3.29772811468653
H         1.37794082725792   11.52105249094591    2.62981687972814
H         1.54612124892824   12.82659457025058    3.81991508032815
H         2.47480993186345   11.32018024390384    4.01623608923272
C         8.22375636341907   15.98397736868605    4.79114587444427
H         8.89436793928254   16.81531999099638    4.57454097191394
H         8.78620731023774   15.05507255603469    4.84841589771428
H         7.73178111911166   16.14457038908590    5.74609319084212
C         8.09387764270430   15.91981407532729    1.99822644366979
H         8.76201106070922   16.77890989735602    2.06535882751083
H         7.47449624085001   15.99362582018318    1.10639771576861
H         8.67874672010737   15.00433823732045    1.93540761747883
C         6.32740977482088   17.55334816065339    3.37630324778488
H         7.14375441812668   18.27309166756404    3.31774129197408
H         5.71518783676895   17.76646311778666    4.25058222803955
H         5.70103084352850   17.62768806822215    2.48791519133959

