75
CSD_code = VUQPED | q = 0 | S = 0 | Stoichiometry = C22H46N2P4W | MND = 7
W        16.81396237190337    2.63208510595298    4.02703583260700
H        18.44752528109754    2.42898777905752    3.81292931328753
P        16.34170894366083    0.37633419160717    4.77235397569616
P        16.71493853475545    4.93035158650402    3.27217969174701
P        17.22486198086472    1.82640455425787    1.72472467215948
P        17.91099653815073    3.23679766755947    6.09720212907660
N        14.75935537919504    2.73911590131039    3.86798614623979
N        12.75302637067995    3.46293092038065    5.60814871895015
C        15.05140923581562    3.12446226400240    5.08971466011715
C        14.04851240763561    3.49080319734480    5.96396746981834
H        14.23298685315418    3.81733977072577    6.97856297129680
C        12.46159698855318    3.07130865364960    4.37368895586354
C        11.11849309818507    3.01569698495820    3.93505900425317
H        10.35774899075443    3.30263077636485    4.64582184280421
C        10.78376424517728    2.61757733101297    2.67018592601127
C        11.80123830107699    2.24681566768735    1.75116039982408
C        13.11448646177707    2.28965337821876    2.14625936963992
H        13.90267154518514    2.01314537730867    1.46362710544498
C        13.48470968019994    2.68946050355247    3.43724039669352
C         9.34600406535327    2.57210609269013    2.24731276008099
H         8.69798936398450    2.86935454256415    3.06794790473787
H         9.06784166054900    1.56645376426757    1.93231931324267
H         9.17011531741841    3.24349551440704    1.40669895975347
C        11.44276618134946    1.81025434250935    0.36225021714371
H        12.33866800462340    1.58098349700212   -0.21078867025523
H        10.88998169817630    2.59167521979498   -0.15938165144321
H        10.81287060451564    0.92056360952865    0.38690065962701
C        15.14365155846978   -0.53566384639738    3.71098000030577
H        14.88999450835290   -1.50251035145529    4.14740396472210
H        15.56083999566367   -0.68357650052592    2.71661361759511
H        14.23916999328154    0.06591907783837    3.61879707834230
C        15.40562285940043    0.23090717694528    6.35329722351862
H        15.17401932723154   -0.81057156451258    6.57846370441064
H        14.47907166497306    0.79741865833448    6.26553063668022
H        15.99042527913632    0.65910799682516    7.16574514043486
C        17.56505321394695   -0.97576495703648    5.07117583051502
H        17.05089853223789   -1.91642840645736    5.27131255671278
H        18.18516996283255   -0.71568977647452    5.92561592278373
H        18.21117265808000   -1.09024974474252    4.20493814305423
C        18.12267739173467    5.97451215413122    2.68539839111282
H        17.79962963150260    7.00759537763321    2.55312560174765
H        18.49748095167475    5.59021149960764    1.74041284584822
H        18.93002394752192    5.93580527966030    3.41257859718866
C        15.53897043346416    5.22050361934246    1.88466904834058
H        15.53532053171784    6.26905944784215    1.58495129037381
H        14.53979077439090    4.93590262572067    2.21492656595864
H        15.80810516830540    4.59745951861455    1.03336187824221
C        15.97390672070345    6.12937936578820    4.45990423132959
H        15.80490144541444    7.09712459015950    3.98656780864287
H        16.63325017315088    6.25375834041540    5.31722075856823
H        15.02457268378101    5.72707311231322    4.81290366761751
C        18.25960349248597    0.30451577783254    1.69276558357691
H        18.64130621984981    0.11471259953541    0.68880614221935
H        17.67688722839947   -0.55274298667797    2.02210546894271
H        19.08767253162966    0.45599550313554    2.38197450843586
C        16.11570072510819    1.39848271205670    0.30681603388109
H        16.71585883584242    1.05601326898618   -0.53630108968717
H        15.54809829633338    2.27630066749886    0.00210892969369
H        15.42532996392796    0.60781997017621    0.59530216901623
C        18.39096632451338    2.90468696711402    0.79499518364846
H        18.79139702936865    2.38469618027181   -0.07615959299172
H        19.19949076723360    3.17677843371698    1.47006443356112
H        17.88055473067242    3.80791890719952    0.46747774464622
C        17.03903135132585    3.85085525927330    7.58934626947505
H        17.75237051828297    4.06582190991856    8.38504314738468
H        16.33358447631862    3.09342995222924    7.92285932246699
H        16.48695361284425    4.75244743900560    7.33538712587733
C        19.21765048878564    4.52357518008622    5.96298938988110
H        19.75194077269415    4.63902648655235    6.90664816999525
H        18.76370505909521    5.47226027524007    5.68491857546290
H        19.90785917494413    4.21677038682664    5.17884783841388
C        18.93582954527679    1.92494464162385    6.87725193941925
H        19.53418480628354    2.32918279543403    7.69446741152123
H        19.58475728789432    1.50610753992029    6.11006305521137
H        18.28431725010639    1.14192924524569    7.25951966147165

