68
CSD_code = VUQRUV | q = 1 | S = 0 | Stoichiometry = C30H25F3MoN5O3S(1+) | MND = 6
Mo        3.28403212598973    5.71755297616948    2.63818785989411
S         2.93135593305213    3.03860256474107    3.96764804253002
F         3.03938304965571    0.42789505028686    4.61371148755324
F         3.37192999843679    0.89098433856202    2.53203978483058
N         1.35672457095519    5.88038816404647    2.95924687577186
N         4.99961854920439    4.82071387706908    1.95656330516199
N         4.11505272763772    7.52156232465693    2.21320163066271
O         2.48151882206012    3.60233022710261    2.68378621414445
F         1.38067684934628    0.98948055812937    3.35148467184979
O         2.06234331054740    3.38886875129999    5.05114036991367
N         2.55387518681981    5.98251062172038    0.64600769720132
N         4.41092882169438    5.92536717729416    4.28813907165251
C         7.29810952697038    3.41012994387188    1.22053555316943
H         8.19250564884911    2.88191901060353    0.93267827621150
O         4.34300787200157    3.19592451294652    4.17550934385332
C         5.44070455281318    7.75611400851341    2.28712410427319
C         1.78489933831632    7.08295387187619    0.55424456443303
C         3.29769000017079    8.48441015667843    1.72874992937856
C         5.96473295475142    8.96182545203438    1.84245421509503
H         7.02034472951306    9.16013055073224    1.88584180717830
C         1.72110897272197    7.19266253835509    3.04864503732844
C         0.61356272375178    7.25672611572721    5.18869762020567
H         0.37949618205613    7.74852891314889    6.11965868545816
C         0.43796430899111    5.33752131039057    3.77143974412927
H         0.08600436832843    4.34588529992997    3.51589764030951
C         2.66396018813135    1.21803938603566    3.61888464977973
C         5.12976532612592    9.93670369627364    1.31545639909787
H         5.53665685625468   10.86902467054196    0.96103904258668
C         0.83528204108095    9.16171331347239    1.68499671786629
H         0.98810792696686    9.84077108926148    2.51835396630389
H        -0.17204133815488    8.75776619177694    1.75338636436170
H         0.92402383936820    9.73542310615210    0.76670405788723
C         7.74364448755423    7.14778396025626    3.07907426290785
H         8.33698466815610    6.41339924833482    3.61525850917297
H         7.77487465550898    8.08160993539489    3.63404382905795
H         8.18893192489718    7.30722898385835    2.10044227160374
C         6.03977332543890    2.86179840923996    1.02988114371193
H         5.90698512282355    1.88038428769938    0.60582860030070
C         6.29521261194295    6.66662456414624    2.93564969041154
C         1.85596994733624    8.02569356839185    1.73565142190854
C         4.93984597057327    3.60106149201675    1.40112999843375
H         3.95250173409474    3.17928080498492    1.29291717472014
C         3.76475157105532    9.69296852144501    1.26029277837048
H         3.08780998894439   10.43410410125863    0.87083966365613
C         1.08383409278768    6.46533552750074   -1.65429963952021
H         0.49245761304171    6.64584938855030   -2.53790132932214
C         0.04162795199036    5.99930593906215    4.90192175876596
H        -0.67133960635715    5.55315078004594    5.57369782865942
C         5.67826300005606    6.37527696066557    4.30567834293091
C         3.79949259960702    5.71597342929024    5.46665477360326
H         2.77569975921434    5.36563939718080    5.42397615077407
C         7.37623614921778    4.66007815622258    1.80771278093719
H         8.34842094968925    5.08899309261832    1.97103827997104
C         6.36514602651372    6.57160657828046    5.49828641208030
H         7.38195867718732    6.92213333319110    5.50181191362912
C         1.40549675170965    7.87312571100101    4.25912575135708
H         1.76859395864546    8.87915789541145    4.41610477452311
C         1.02531639615183    7.33789327244644   -0.58186286493873
H         0.38634212742945    8.20285277450223   -0.63237111961552
C         2.63195944053097    5.16288747891437   -0.40187730197200
H         3.28249064546310    4.30740937410239   -0.29431459971358
C         4.41992413356481    5.88290926202563    6.68047404853148
H         3.87906027156870    5.67629228354530    7.58877316790278
C         1.92363362429350    5.36316561514423   -1.56937292096798
H         2.01466499787299    4.66516032781878   -2.38513717410709
C         5.74324211267884    6.30932956354179    6.70432082649554
H         6.27134697502283    6.43963729412520    7.63447579078121
C         6.22141937939496    5.34266891838920    2.17512027489764

