31
CSD_code = VURFAP | q = 0 | S = 0 | Stoichiometry = C10H17Cl2NTi | MND = 8
Ti        0.23433011668054    2.70676072743470   13.96781405990205
Cl       -1.32249640389639    4.22263004522908   14.07598578908516
Cl       -0.84738717330872    1.10769650918792   14.97508098343566
N         1.47538621427904    3.26882280955046   15.16387977626725
C        -0.22049625252515    2.10101100650520   11.77699793381458
C         0.64609133747854    1.12531869313259   12.31658940971667
C         1.87162480833682    1.75212216899885   12.62682363494999
C         1.76246074586516    3.11865158182878   12.26170253984395
C         0.46955400219146    3.33317815358616   11.72910815116836
C        -0.01766514861265    4.60477224957754   11.10179270354076
C         1.40950994809184    3.39848064801860   16.61029921461827
C        -0.00598417918414    3.79347820594041   17.04981899797168
C         1.79590751722172    2.04772129474465   17.24283087501332
C         2.39547697356487    4.48890627786985   17.06078702011404
H        -1.20991894586631    1.91725610708037   11.37488854693634
H         0.44286849671325    0.06350039331718   12.38800016414339
H         2.77560009815910    1.24850005061837   12.94977273684725
H         2.57001722494424    3.84218733576368   12.25191898832952
H        -0.72789368943203    3.02937315306802   16.75593615168775
H        -0.03746645551475    3.90393063210426   18.13152555818549
H        -0.28670431811650    4.74267819242077   16.59160957500152
H         1.11626117867282    1.27333921082909   16.88544810619259
H         2.81331416036018    1.77690659529856   16.96240518718637
H         1.73532209908601    2.10215884934417   18.32652104872399
H         3.41844921929003    4.20970297067427   16.81128441954355
H         2.15694153628080    5.42730294670202   16.56245626117808
H         2.33340271015054    4.63793708770512   18.13526612245227
H        -1.10468793513049    4.65574162988926   11.12196260870352
H         0.38063246019976    5.47337970659710   11.62620822530134
H         0.30906008719588    4.65318396028668   10.06058949080882
H         2.45798956682337    3.33917080669623   14.88879571933673

