54
CSD_code = VURFIX | q = 0 | S = 0 | Stoichiometry = C17H27MoN3OS5 | MND = 7
Mo       -0.00129376631690    1.61028413972457    9.27489901793217
S         2.13611361976124    1.01006820546194   10.72800783011306
S         1.85064643211850    0.28634538485082    7.96612340522875
S        -2.51338627732733    2.43860930377892    9.02268654670167
S        -1.03258031617958    1.20672598168311    6.89992019319636
S        -0.36295612446893    2.96991574101829   11.37920531490028
O        -0.72931350913398    0.21533731181256   10.11372863692540
N         4.05259720206440   -0.23854144586125    9.36590495219609
N        -3.40269144475026    2.35952103657573    6.51242329286516
N         0.62979063453711    3.18717588618219    8.82497733782160
C         2.83376808366910    0.28517514558521    9.35749204107151
C         4.86046381236169   -0.21398819695343   10.56926570083331
C         4.57477769383519   -1.42454218852165   11.45250568285603
C         4.61806278362624   -0.83438462197969    8.17158963414998
C         5.32685296401253    0.20953580746828    7.31437536041481
C        -2.43569737216295    2.05174375642835    7.36978654866435
C        -4.56237448904437    3.10223477540264    6.96757753136236
C        -4.30121413676277    4.60302464798606    7.05430745050905
C        -3.25664154553830    2.04243090138354    5.10472834400421
C        -2.41172415006995    3.07055613821569    4.35821127739318
C         0.77323184528419    4.38353226973694    9.38315470238061
C         1.31593627900270    5.53878944798197    8.81061792219107
C         1.38766765600916    6.70660009144595    9.54207540641798
C         0.92458237721483    6.75191901034937   10.85055425220972
C         0.38214410814995    5.62398084915654   11.44277885216581
C         0.30148160952886    4.44413336393873   10.72529547193521
C        -1.33447900729623   -0.45836362997850   11.13133606202320
H         4.63052360723474    0.70181333240873   11.11950652468043
H         5.91001899871461   -0.19644679014252   10.26956028017969
H         5.20373531221057   -1.39248085569295   12.33711526237400
H         3.53446251679667   -1.41267870599881   11.76535363893796
H         4.77080088527757   -2.35000457922090   10.91578291734995
H         3.80770391726766   -1.28953071264837    7.59695991972654
H         5.31551108005724   -1.61475738647867    8.48290058828982
H         5.74834792227748   -0.26208344489169    6.43158307947125
H         4.61637954875619    0.96852443075201    6.99870124885551
H         6.12759388376023    0.68921106990450    7.87232892242966
H        -4.82862961830493    2.72885294987749    7.96060047269955
H        -5.38447641225985    2.89731188581446    6.27898079392943
H        -5.17442982458733    5.09905465041342    7.46802195183925
H        -3.45384984308152    4.79425460434945    7.70719280323447
H        -4.09398214390498    5.02308813502796    6.07408834212675
H        -4.25532733891720    1.98055197113106    4.66805376191218
H        -2.77585905123352    1.06283112594674    5.03038306916887
H        -2.27319877596263    2.74870655906714    3.33004979652890
H        -2.89089177560218    4.04551309032554    4.35665471100459
H        -1.43592857531823    3.15754311042666    4.82820963290035
H         1.67375986942881    5.49176632577316    7.79200388025693
H         1.80893912090481    7.59318529608741    9.09032978493271
H         0.98684563494074    7.67180977938171   11.41271630630942
H         0.01906932078612    5.64763832807048   12.45877673201686
H        -0.75906339150366   -1.35846998344500   11.39269667176906
H        -1.39893093172342    0.19447871441734   12.01626945385551
H        -2.35038889810675   -0.76170201357688   10.83835068483237

