64
CSD_code = VURKAV | q = 0 | S = 0 | Stoichiometry = C26H32Cl2N3V | MND = 5
V         2.68897834597425    3.49584918279513   10.18109027428751
Cl        1.42674425525153    1.90289385677838    9.60713982663800
Cl        4.54809131614254    3.05814685484817   11.16759634499693
N         2.53636357967899    4.84185302872232    9.05069196436683
N         3.87082831574751    2.70654390781907    8.38794216396086
N         1.94972104539033    4.15009947598315   11.45104361395529
C         2.59427039613562    4.56744686011036    7.63621862394155
C         3.51490121846927    3.42126013742587    7.33354348814259
C         3.94916720434790    3.11352264731801    6.04781119384510
C         4.77584117814054    2.01717794258912    5.87845568928776
C         5.13824768391731    1.26972920876922    6.99043962230983
C         4.65917018988063    1.65631219662098    8.23051408050241
C         2.40617343844609    6.20729635172055    9.36011180879609
C         3.55975479176577    7.01064584586189    9.37662269476160
C         3.42996047965149    8.36138826934980    9.66976986766019
C         2.19276169614926    8.91334390146368    9.94244891721436
C         1.06125167635951    8.11950496547888    9.91444247125085
C         1.14444251090620    6.76541884082240    9.62170647701685
C         4.92233571802961    6.43372549925041    9.05368103233536
C         5.92514496665878    6.66361596065050   10.18612148712865
C         5.45476550338025    7.03449384485586    7.74819372643698
C        -0.10598554562184    5.92138215238116    9.52049078550243
C        -1.08415627330312    6.18895834246786   10.66551576615385
C        -0.79370988991382    6.18680900760512    8.17592252268314
C         1.37915927953045    4.59475317660702   12.56606661980731
C         1.90760174100123    5.70802400199549   13.26640900788220
C         1.27393145600768    6.15089108073963   14.41417443485987
C         0.14182428142707    5.51857276315563   14.89888820837468
C        -0.36424911803218    4.41162284293895   14.23577264689582
C         0.23034153523777    3.93598223593840   13.08280718139793
C         3.13964478603734    6.39043711019180   12.76386120701777
C        -0.30296846671940    2.73539916088456   12.37138240860397
H         2.89898943083211    5.45942013513927    7.06881644775629
H         1.58491035913505    4.28393182357573    7.28154251308163
H         3.64241155374825    3.71954963628123    5.20869248062966
H         5.13339590735781    1.74858480699463    4.89529159756419
H         5.77917737391241    0.40753593337672    6.89690156315557
H         4.91698242681848    1.11559283151196    9.13332840282799
H         4.30569702275237    8.99259727613640    9.68186509741259
H         2.10892676849335    9.96628946814235   10.16813709061818
H         0.09935921104194    8.56548644813654   10.11292803133233
H         4.82642128208352    5.34820082730952    8.92869244346352
H         6.02101732985663    7.71933068198205   10.42595108596452
H         6.90287934739849    6.28820174316308    9.89116012338510
H         5.61246251063418    6.12915181152607   11.07908607946064
H         6.38792827095385    6.55180216972734    7.46527437144429
H         4.74145081463686    6.90485347836061    6.93585131859151
H         5.64178733481732    8.09939638830668    7.86528663969178
H         0.19423686361613    4.86553010818669    9.56600750269511
H        -1.55225554191998    7.16519458554182   10.56392383604204
H        -1.87167273078688    5.43893433737559   10.65969324959886
H        -0.57197983468218    6.14412075406259   11.62274156083892
H        -0.11560712804018    5.99952061990991    7.34580615399224
H        -1.66335974711601    5.54290980390503    8.06500799227450
H        -1.12082211116223    7.22324996568421    8.11745338477193
H         1.68136400845550    7.00276518459958   14.93950725618111
H        -0.33934456804491    5.87911714123426   15.79565149437157
H        -1.23844105148575    3.90814064739296   14.62328556028448
H         3.66473964728626    5.73283644311447   12.07204389519755
H         2.87559262365415    7.30669510476803   12.23593275455405
H         3.79495555135669    6.65062384673645   13.59269848967326
H         0.46877727512014    1.96363084271116   12.31643974605732
H        -1.17244175733321    2.33335810415887   12.88607084117448
H        -0.57718773946163    2.99204639680675   11.34705483790006

