94
CSD_code = VURKOJ | q = 0 | S = 0 | Stoichiometry = C34H54N3Si2V | MND = 5
V         2.46697154049436    1.39964384687082    3.66016731303834
Si        1.76554534240507    3.29465227907415    0.80421520862339
Si        3.67293543948362   -1.68395287453556    2.96223400326326
N         2.45855090726013    2.64410962687195    4.94628615781427
N         4.44408932610787    2.56128068852780    3.19795519290240
N         1.12844079589366    0.57792954550181    4.00290212976878
C         3.07028767486837    3.90208006212267    4.61595663891061
C         4.34112269628908    3.71486722898423    3.84015390977634
C         5.33580097835373    4.68856125245115    3.78921815694944
C         6.47036925770475    4.43942487283450    3.04032858352171
C         6.57033635376430    3.23094412939768    2.36399102277512
C         5.52930502683274    2.32693702172379    2.47377051716576
C         1.99709719329397    2.55517965691124    6.26977769872348
C         2.90919297302374    2.27249188435343    7.30562996110628
C         2.45740732473001    2.21503362736330    8.61633964411162
C         1.12688465758946    2.42343107676284    8.92012333894514
C         0.23105514400931    2.70330434469883    7.90614574683092
C         0.64354156318613    2.78073696994052    6.58435694746141
C         4.37369164550318    2.02755963430076    7.01203565655129
C        -0.33883314561371    3.17213630163806    5.50541358013550
C         0.03432520008316   -0.11387180383667    4.32240344180317
C        -0.01273515282607   -0.90317119910396    5.50309094026778
C        -1.15091849309041   -1.62761396019959    5.80604875640500
C        -2.26480402761777   -1.59990952942503    4.98457698236771
C        -2.24181387024424   -0.81474506142436    3.84546254556139
C        -1.12622100394708   -0.07205832125354    3.50446743124366
C         1.17058128079782   -0.96147103622642    6.41877621120509
C        -1.15415042929940    0.78122233944711    2.27259858565647
C         2.19869102000031    1.65148386702250    1.62273963442950
C         3.27180744247786    4.48171972682252    0.67256441640657
C         0.37267117469645    4.27119488944406    1.69641534831673
C         1.16072528650731    3.02730025801920   -0.99751505555180
C         3.75017157086931   -0.17700705067994    4.10672507693209
C         4.51341822752624   -3.18946772081703    3.81451202299607
C         4.65326512459380   -1.40395413196795    1.33210482552544
C         1.89829455496393   -2.22611540680504    2.49975568014196
C         5.23586852519521    3.18608599244745    7.52230995209423
C         4.85469900043315    0.71032990797854    7.62652489970925
C        -0.50138236902204    4.69724913175986    5.49796579588455
C        -1.70648688508819    2.51028361565851    5.67747641721509
H         3.26976347659252    4.49940234538269    5.51887480989968
H         2.39329647098800    4.50798223068742    3.98113780130121
H         5.21566839947598    5.61650981560768    4.32833221917496
H         7.26450775517266    5.16932637453096    2.98438799250085
H         7.43763307833228    2.99805352632443    1.76633728578291
H         5.56710325857208    1.37079192939005    1.96595927972592
H         3.15606796804905    2.00709784234484    9.41284744891193
H         0.79027215961893    2.37655302052363    9.94538941884910
H        -0.80418481290292    2.87939940884688    8.15262599433138
H         4.49530460480113    1.95163239479432    5.92595400258437
H         0.08203563435885    2.84412567683885    4.54558233834810
H        -1.16590957994550   -2.22362470640497    6.70806561996505
H        -3.14363852432469   -2.17449747987564    5.23557049032758
H        -3.11280129568072   -0.77340244010911    3.20621578691763
H         1.70449989682493   -0.01267586527888    6.38913044778455
H         1.84756480699090   -1.75540653205682    6.10047979218767
H         0.85278421776205   -1.16975153822065    7.43857367034483
H        -0.49083003461911    1.63524961040831    2.39227170149927
H        -2.16743637558900    1.12415339940630    2.07198685851786
H        -0.81935928311596    0.20609759253864    1.40795940318494
H         3.19510329845671    1.35802511950603    1.27549822969795
H         1.51221957071457    0.88353130411229    1.25771529129939
H         3.08698643849391    5.25462233934816   -0.06771137664785
H         4.17170498231662    3.95335728229823    0.36941001998107
H         3.48739518817813    4.98143953347317    1.61286616545249
H         0.45009228890783    4.19456994518871    2.77739129807789
H        -0.60881677674901    3.90319446149251    1.41359026894327
H         0.40970108032955    5.32571981785396    1.43526534097323
H         0.86999019793190    3.96435074080037   -1.46250267522236
H         0.29983777926939    2.36652411071816   -1.02715543378832
H         1.93514427535041    2.58206204999147   -1.61496489544728
H         4.76183988209648    0.23899381331164    4.07967548139607
H         3.57996692064838   -0.51085509804805    5.12903040069910
H         4.52093234631224   -4.05661008125671    3.16191520217550
H         3.99061369129348   -3.47067982224562    4.72333266482103
H         5.54323842423735   -2.97506414590047    4.08364159320257
H         4.66520515185631   -2.30998425635465    0.73367599644220
H         5.68851758941477   -1.13701766306463    1.52856489846129
H         4.21234541729258   -0.62181658526290    0.72094220635895
H         1.90843976052516   -3.06569467353267    1.81045932838480
H         1.35203777991817   -1.41174633900049    2.03333935332918
H         1.33705545501740   -2.52695551365404    3.37878089830454
H         5.14160335498083    3.28539210287827    8.60161473721255
H         4.93569802347612    4.12923553203317    7.06981056390665
H         6.28339078612279    3.01062811833842    7.28320769004410
H         5.85287848023274    0.47295184879525    7.26343096309798
H         4.18513930457436   -0.10257806135288    7.35617944922902
H         4.89707788799588    0.77423607461482    8.71107144692463
H         0.45583305559164    5.19336126351497    5.35043668012777
H        -0.91216206032078    5.03510141279417    6.44783215210671
H        -1.17786279519791    5.00183999390618    4.70217105017007
H        -1.59460497788757    1.44657724479459    5.86563431332925
H        -2.29197850785190    2.63808377873451    4.77027939892250
H        -2.26110398708366    2.95745206283678    6.49938361890818

