67
CSD_code = VURXEL | q = 0 | S = 0 | Stoichiometry = C30H30Cl2N4Os | MND = 6
Os       -0.00002766385931    0.00002037197085    0.00001940993864
Cl        1.98446938885178   -1.13765790251434    0.02246565138077
N         0.14502795409740    0.25285911499582    2.01399657123548
N         0.83895363055920    1.43970077839685   -1.16439724519402
C        -0.52304147817745   -0.86061440994689    2.30741841050048
C        -0.97942890824716   -1.31622974541490    3.66155752022577
C        -0.19699086844628   -2.52454718974114    4.18239022157231
C         0.75501494273641    1.16613863690898    2.84881486313605
C         1.42373538450091    0.81644242874039    4.02556645024466
C         2.06600087603033    1.78765212426936    4.76965124072804
C         2.06118212268091    3.11081774158567    4.36055273815694
C         1.40952294575346    3.46394918192202    3.18834147155691
C         0.76423992451884    2.50467723320458    2.43796831688771
C         1.54610437699409    2.62385459690425   -0.95888987025644
C         0.90534228063146    3.85805426578850   -1.06577039724182
C         1.59627475100097    5.01944940251063   -0.77604769053837
C         2.92029483454178    4.96357484774337   -0.37295979568064
C         3.55267590545261    3.73718996917880   -0.24845896557510
C         2.87265718393626    2.56894665946976   -0.53381733961685
H        -0.88702816129246   -0.47849097915970    4.35527408931458
H        -2.03647414793004   -1.58484621079630    3.58208869361816
H        -0.44355554840140   -2.69882181347279    5.22718263336079
H         0.87544060585811   -2.36217973611245    4.10055986473796
H        -0.45103753082380   -3.41590574837971    3.61558507158793
H         1.47415933971849   -0.21568455467113    4.33267948963484
H         2.58458954260715    1.50453964850742    5.67411535462922
H         2.57005200136266    3.86080227639256    4.94695223179819
H         1.40799552719642    4.49139166827660    2.85602828376144
H         0.24514279510331    2.76879983636830    1.52784709522003
H        -0.13812165317591    3.88839259082640   -1.34405118014676
H         1.09479045818148    5.97261651933706   -0.85912219805439
H         3.45482965629007    5.87378783297773   -0.14592760281922
H         4.58072776776279    3.68959381353568    0.07836486764983
H         3.34770337995420    1.60531658530788   -0.42460047276225
Cl       -1.98434413758172    1.13801808704688   -0.02322202388324
N        -0.14500148762271   -0.25288261113183   -2.01393376315607
N        -0.83891608470113   -1.43973234841517    1.16445036689325
C         0.52305191256196    0.86059577276587   -2.30735925051272
C        -0.75495912948377   -1.16618170238544   -2.84875015342006
C        -1.54611907575630   -2.62385567772383    0.95892521280896
C         0.97939403929739    1.31624228920720   -3.66152300380429
C        -1.42368425720139   -0.81651351349121   -4.02551059207145
C        -0.76413333022074   -2.50472390742882   -2.43791087181412
C        -0.90541443416831   -3.85808673943179    1.06576674378062
C        -2.87266564946351   -2.56886339442472    0.53384010935147
C         0.19688999359663    2.52451539871719   -4.18237674244976
H         0.88703737932030    0.47849780351278   -4.35524052410695
H         2.03642468086370    1.58492445168579   -3.58207838177363
C        -2.06590345771042   -1.78774928593536   -4.76960442205207
H        -1.47414438702592    0.21561105753594   -4.33263451619866
C        -1.40936755194112   -3.46402243964319   -3.18829386172896
H        -0.24502946158491   -2.76882930044354   -1.52778708167023
C        -1.59640637027840   -5.01944052059910    0.77601792820266
H         0.13805071002077   -3.88848105112086    1.34403872473287
C        -3.55274199731463   -3.73706541811946    0.24845066463227
H        -3.34765502010696   -1.60520345405256    0.42463034289679
H         0.44341071050943    2.69878599510055   -5.22718521738922
H        -0.87553308938318    2.36210846956334   -4.10050965284180
H         0.45092257899777    3.41590040617181   -3.61560593905582
C        -2.06103097299875   -3.11091755923332   -4.36051144378535
H        -2.58450003059434   -1.50465771778119   -5.67407391692348
H        -1.40780005389555   -4.49146677949101   -2.85598089407133
C        -2.92042357308830   -4.96348468094078    0.37293032638712
H        -1.09497169590369   -5.97263506300983    0.85907737574838
H        -4.58079059921709   -3.68940579538872   -0.07837481080069
H        -2.56986371622612   -3.86092440663751   -4.94691777462225
H        -3.45500405766042   -5.87366619938406    0.14587925970903

