41
CSD_code = VURYUC | q = 0 | S = 0 | Stoichiometry = C9H18BrMnO9P2Si | MND = 6
Mn        1.20201960338064    6.72430126340632    5.47927729085575
Br        0.51204850754553    8.10155827519908    3.59908258582008
P         3.04202458600093    6.39833094940199    4.26795417803627
P         2.16193518680727    8.59980132797209    6.20186193101823
Si        4.00263228895524    9.20537469644447    3.92902250144499
C         1.85972688163877    5.79652422076771    6.83038021362868
O         2.26406504782024    5.18220400644306    7.70647218731037
C        -0.25335223620456    7.05678126427605    6.43873586003216
O        -1.15974012942480    7.24984313844816    7.11660552494357
C         0.47533325868739    5.23642561293908    4.84148274174069
O         0.04872308273425    4.23492353896808    4.47554145965119
O         3.02214678934695    5.37799328673951    3.03312170139373
C         2.22811494532167    5.58301133625358    1.86940518099219
O         4.14947242265878    5.69895309660029    5.17331042919812
C         5.40695376949001    5.27743896112525    4.64929096552527
O         3.84035177275956    7.60433703239361    3.57328485597244
O         1.27344745774253    9.75198985731442    6.87214686202499
C         0.27408051773292   10.47702158918162    6.16365378482357
O         3.12216728431231    8.26085084621379    7.42592930833991
C         3.80304795014631    9.27508707529801    8.16146711738576
O         3.07827143269856    9.51789897273898    5.25726698844173
C         3.34568750603427   10.22524390888105    2.47838128663847
C         5.80818479244435    9.46002035649680    4.45219702785770
H         2.55818974759213    4.83951249990994    1.14490727978459
H         2.37563567853360    6.58714256811546    1.46862498848777
H         1.16838630588508    5.43594043001781    2.08652980776888
H         6.03806901533889    5.05826345620220    5.50968214139713
H         5.85611637678256    6.06598143387280    4.04321544636032
H         5.27936486118534    4.38125434689764    4.04239067697142
H        -0.01842946845348   11.30035313773760    6.81425731369940
H        -0.59446511741192    9.84869609198549    5.95729829614248
H         0.66707084965003   10.86542429942996    5.22275097670783
H         4.54238265144357    8.76279908136968    8.77561671411516
H         3.10053080544751    9.81476244719211    8.79595288546927
H         4.29494199996843    9.97674747854232    7.48598736186507
H         3.93141913608489   10.03002895906564    1.58642402376045
H         3.43017465033032   11.28433879217376    2.69768712454855
H         2.30266437702757   10.01029360357150    2.25046131099733
H         6.47520001215496    9.23603163189231    3.62649311807244
H         6.09464370002650    8.83241647730599    5.29424238937426
H         5.97826169978582   10.49399865121526    4.73280616140183

