101
CSD_code = VUSJAW | q = 0 | S = 0 | Stoichiometry = C51H44BCuN2P2 | MND = 4
Cu        9.71296497349983    0.34027754553979    4.58418333657618
P        11.05212222812296    0.23572863264969    2.82084711713638
P         7.52466419414201    0.77182311860022    4.21990860629154
C         9.15745881412275    3.81972574408961    8.78800183608903
H         8.56839518445537    3.76376792594814    7.88687502911673
C         9.05172867063664    4.90990613712990    9.63088387456457
H         8.37677786297062    5.71638932580479    9.38155704042511
C         9.80322432640064    4.97301340580445   10.79302398024894
H         9.71942277608525    5.82799910989745   11.44857215515177
C        10.66193159423428    3.93480898098155   11.11318336941290
H        11.25031647679763    3.97922569451726   12.01886160181551
C        10.76960659738248    2.84095536285800   10.27501185705322
H        11.44501226045545    2.03394741475898   10.52174682796707
C        10.02432360961561    2.77544207062710    9.10002634212836
C        10.10562464957225    1.59483595957581    8.25035810277251
C        10.11258373904916    0.26400996079033    8.66927730750250
H        10.08419727542225   -0.09107380082439    9.67975982807475
C        10.08684675280211   -0.49080217752353    7.49746114304762
C        10.01820892464178   -1.93183874210883    7.31895765096622
C        10.50281468963449   -2.80026559727376    8.29686599456736
H        10.95293511010424   -2.39496226065224    9.19087245595788
C        10.42269673235659   -4.16837542644737    8.12209603295261
H        10.80467596653392   -4.82998160762912    8.88643443563783
C         9.85794444525920   -4.69626276047959    6.97193304739629
H         9.79675325781839   -5.76663392282897    6.83976269838394
C         9.36806145735550   -3.84387520505343    5.99597000607152
H         8.91563761048974   -4.24315972025151    5.09885759096971
C         9.44450389331639   -2.47594841454937    6.16902412287016
H         9.04651644878439   -1.81165285877694    5.41127854262663
C        12.81477656844835    0.59816324567078    3.09228475632669
C        13.27294840366653    0.62164959471910    4.40389831441474
H        12.56897564962559    0.46327093133043    5.21050693465200
C        14.60987147409519    0.86522077397603    4.66338226397550
H        14.96518960603911    0.89238412243865    5.68280414838387
C        15.48953013726975    1.07877793122341    3.61527003215505
H        16.53289525171644    1.27283253794803    3.81661593474600
C        15.03510825427645    1.04558103329112    2.30558907008659
H        15.72467124030588    1.21049817061561    1.49024187588528
C        13.70088885265766    0.80304339748265    2.03917870579377
H        13.34317187591278    0.77825934774859    1.01899660468611
C        11.20249356149563   -1.35703394203642    1.93765948403161
C        11.12488858470779   -2.49407731169774    2.73772625402344
H        10.96183867743427   -2.37680676590544    3.80216514729606
C        11.25067467247671   -3.75159681448824    2.17826193780332
H        11.18841499765696   -4.62889697494207    2.80531419894858
C        11.45352759359783   -3.88106866341452    0.81369874190956
H        11.54859702053156   -4.86182415981050    0.37132453224041
C        11.53412952162916   -2.75197400000673    0.01451853250574
H        11.69464990321447   -2.85468378081235   -1.04902625499330
C        11.41096675499875   -1.49104087628383    0.57018821421347
H        11.46758884649190   -0.61466791460429   -0.05991216957667
C        10.54676735398694    1.40501174421983    1.53060746308900
C         9.47817845899249    1.07008258174269    0.69984050263635
H         9.02760147803408    0.08864948528426    0.77655089780620
C         9.00117658801491    1.98349929924036   -0.21933872476605
H         8.18149597101480    1.71510709788641   -0.86964562544971
C         9.56577185773953    3.24688730794658   -0.29716706119148
H         9.19199918168964    3.96010755490828   -1.01685175542118
C        10.59800857855765    3.59884068948990    0.55664342158717
H        11.02359081873781    4.59063199560762    0.51004477991114
C        11.08613727058057    2.68602453379592    1.47403882118873
H        11.88024017803971    2.96295955882235    2.15315717051538
C         6.69083899112255    1.36961288984651    5.71796379556829
C         6.85233511210167    0.58639145323002    6.85970484873671
H         7.33871342807685   -0.37793339903950    6.77913585379419
C         6.40918304349601    1.04328495406532    8.08495114984991
H         6.55231869624590    0.43887432918479    8.96875284212894
C         5.80186106955133    2.28542504436240    8.18050780841532
H         5.47307527243429    2.65304028265711    9.14125110280852
C         5.62669281298570    3.05966627278924    7.04537215813546
H         5.15258769353686    4.02775229429336    7.12045910001499
C         6.07334340186092    2.61031712920907    5.81533217270429
H         5.95691006639310    3.22760866740960    4.93533787997356
C         6.92942931276274    1.87671525778586    2.90120427285611
C         7.57016079494438    3.10903083373589    2.78343253970002
H         8.36477073407800    3.35885479816923    3.47427354482065
C         7.18717535122163    3.99703427985303    1.79682382487619
H         7.67802779431652    4.95572305308249    1.71701150501557
C         6.18061130723942    3.65382933021072    0.90798168960461
H         5.88265069063040    4.34644613409563    0.13434885677268
C         5.56073580240848    2.41927925560285    1.00653668799366
H         4.78118554641212    2.14858174213758    0.30863511014666
C         5.93077903757744    1.52861627969409    1.99859166688409
H         5.44333610860434    0.56657311754051    2.07307073086299
C         6.65269400830294   -0.79040221855163    3.86428969515079
C         7.34742893179762   -1.72264835839178    3.09824952672207
H         8.34433691322019   -1.47564111331180    2.74807144258839
C         6.78083799332114   -2.94731704960582    2.80166359283212
H         7.32743849458268   -3.66517908108794    2.20704002143521
C         5.51524695727210   -3.25198503522286    3.27757826497701
H         5.07061438598688   -4.21066471559179    3.05449596669154
C         4.82106909230629   -2.33012107086563    4.04482785525453
H         3.83543672668511   -2.57109720698997    4.41588407989504
C         5.38428911392337   -1.10136443020918    4.34033775071329
H         4.84469564853508   -0.38268927808513    4.94181227660466
N        10.09997080825473    0.35965611653575    6.45622762536731
N        10.11067763035527    1.60533741522161    6.91015226004357
B        10.14823234289120    2.76509520400729    5.88117733026011
H         8.99603657888171    2.97674506868564    5.55185815512112
H        10.66030493437600    3.72313276122414    6.37005009146193
H        10.77475166548875    2.37038336585589    4.91094583994981

