45
CSD_code = VUSNON | q = 0 | S = 0 | Stoichiometry = C21H15ClN4O3Ru | MND = 6
Ru        0.48981416793774    4.53441817521068   10.23426950521720
Cl        2.05306966283344    6.30412678728033   10.59236945652899
O        -0.87356255147255    3.01499867560343    9.92199953243274
O        -1.05537782048678    0.80849681355264    9.88654772303316
O         3.76823020237088    3.93058535892465   10.98671505303195
N        -0.14458591014167    4.72337272627946   12.10901981126609
N        -0.82562261520828    5.80926798017649    9.93005593730435
N         0.73920284533429    4.71929922067759    8.27070669272305
N         1.75150432831384    2.89376402959467   10.52694011177026
C         0.29983282351762    4.12451182671392   13.21043280550640
C        -0.23168996333476    4.35701073567329   14.46437871785484
C        -1.28129246826144    5.25876354130197   14.59130071211332
C        -1.75000729568534    5.88962970635382   13.45532976663507
C        -1.16911322113511    5.60891075734255   12.22032476956119
C        -1.58386125498924    6.21748940499988   10.96074512709406
C        -2.62756322595699    7.11304051503300   10.74780875987093
C        -2.87110038093619    7.56192045419177    9.45738574162255
C        -2.09058628335487    7.10754926707968    8.40365650476112
C        -1.05900034145543    6.21232504887194    8.67028235832030
C        -0.13634018256665    5.60042132550265    7.71993703916717
C        -0.12157987997640    5.87479991741625    6.35392561684135
C         0.79781292086592    5.24338127993766    5.53896800460306
C         1.69072273765474    4.34797566610915    6.11518082028648
C         1.62224415079785    4.12062972636922    7.47626899546723
C         1.07472227374511    1.73506755650481   10.37444925384988
C         1.66491773203621    0.49536708476359   10.51346056679053
C         3.01741263387778    0.42446872093583   10.82441792051844
C         3.71645276512110    1.59887894952459   10.98155146446235
C         3.05675060013738    2.82914076919643   10.82667084362521
C        -0.41187065515735    1.83299606328185   10.03196009989706
H         3.23269563223050    4.76644311405746   10.86313875699181
H         1.12174136918883    3.42989389039749   13.08036042295286
H         0.16882699613658    3.84337928386677   15.32320135872009
H        -1.71962288712494    5.46474366099127   15.55522506251646
H        -2.55957376532263    6.59884178837825   13.51640514779882
H        -3.24081923079294    7.45067055345676   11.56703407798502
H        -3.67372009203627    8.25819444096330    9.27186080091422
H        -2.28562508549982    7.44091843517900    7.39766993662960
H        -0.82620643411644    6.57945275195205    5.94260399002778
H         0.82271435950180    5.44436537530334    4.47938473562286
H         2.42825794219432    3.83501372151720    5.51959151392186
H         2.30773299685184    3.43063884569746    7.95490499111451
H         1.04852031201213   -0.37787860787400   10.37423527656705
H         3.51057893699238   -0.52831201506400   10.94056012972829
H         4.76636315536020    1.62232667677368   11.22246408635207

