74
CSD_code = VUSSOT | q = 0 | S = 0 | Stoichiometry = C35H34NO2PPd | MND = 4
Pd        6.68806633714371    6.64646601403534    1.83171910456285
C         5.37536213802364    7.94668427492069    1.12752913586565
C         5.42752910646127    9.34014304496869    1.31302365394689
H         6.12818073621681    9.76219335368602    2.02653528572272
C         4.60038543392715   10.16896776313245    0.60574695562428
H         4.64365406238570   11.23952233631750    0.75151903646655
C         3.67699272431847    9.65217053172276   -0.32481952175525
C         2.81019346599441   10.49902238203173   -1.04624378399011
H         2.86645806294579   11.56374688413775   -0.86824523828791
C         1.91825275867109    9.99081648940921   -1.94680257219093
H         1.25739375362480   10.64547936844471   -2.49572286362494
C         1.85511101000503    8.60618772687116   -2.16122994917222
H         1.14258998390212    8.21199315325451   -2.87150662693326
C         2.68226664789199    7.75791664523819   -1.48012899451214
H         2.60710426126709    6.69547852905158   -1.65657484921855
C         3.62170788552354    8.24787490025426   -0.54498284013396
C         4.51162726545259    7.42023297421876    0.18318896514948
C         4.55670478122178    5.91226504548205    0.04222681408096
H         4.23486665885018    5.56283253935236   -0.95066380791802
C         3.63285750817696    5.33777701298511    1.12001097113957
H         3.48587873585511    4.26519631861443    1.01556138791550
H         2.66190166511031    5.82333420170075    1.04539914243438
H         4.05573535771725    5.56942634755401    2.10511697651146
C         6.79877151671001    5.91971955301392   -0.87656587517119
H         7.85504411301807    5.78442216070858   -0.61646302459940
H         6.61998564968863    6.96990447160149   -1.12592025270850
H         6.57203811589012    5.30653085445443   -1.76116509264035
C         6.16378625572077    4.09493802460006    0.51017421323659
H         5.60180687914799    3.76848885000028    1.38590846718277
H         7.22259976201717    3.90367880764562    0.71013661564094
H         5.85437760321824    3.49375858941581   -0.35614770432130
C         8.64408553907427    4.67279534381426    3.13431070390659
C         8.92404070994073    5.14944063359641    4.57887864443698
H         9.98836442063174    5.39797419399775    4.61334715825559
H         8.73010702576649    4.33494628641789    5.27925009562203
C         8.09050109891964    6.38013048602555    4.93329042104525
H         8.58213407762281    6.95422738627178    5.73188667247746
C         6.68854262231350    6.03934780411207    5.36653274316560
C         5.85186230789641    5.28776581001210    4.54006777155380
H         6.23778676502018    4.85204772900240    3.61662982826126
C         4.55109019943568    5.01196467772856    4.93031653585271
H         3.91407865167372    4.40853716299950    4.29917226517435
C         4.06236476990075    5.49671519512769    6.13222967461066
H         3.04574295929821    5.28465766309805    6.42813990625980
C         4.88503426195397    6.24567751922379    6.95438253002705
H         4.51394595628040    6.62307981764654    7.89579680283873
C         6.18781825781472    6.51362923973027    6.57277830536932
H         6.82461011804899    7.10124932985741    7.21966078241081
C         7.09504611996407    8.92275697801064    4.49340806681957
C         5.70793117027761    8.91435816774561    4.61158269276415
H         5.14350577241861    8.15838274326722    4.07161351394126
C         5.06575438101620    9.85964692540779    5.38760783459774
H         3.98974569969471    9.84413127536766    5.47849501268648
C         5.80614416843251   10.82979720507210    6.04485853039138
H         5.30814499470165   11.57139876269496    6.65212147682966
C         7.18459716935102   10.85607715678083    5.91506746912251
H         7.75996918101026   11.61978713748428    6.41847031458024
C         7.83006177331568    9.90544221285425    5.14253486481838
H         8.90564234037865    9.93407450893026    5.03788968654211
C         9.40843259598249    8.20525540499622    2.91912300410368
C        10.54709515498731    8.37053724958785    3.69623864979581
H        10.53600139285252    8.10980670454333    4.74582091091859
C        11.70841608935957    8.85357115906008    3.11703673192949
H        12.59741168596742    8.97745415841635    3.71877728813105
C        11.73651772169468    9.16928751190343    1.76902248184255
H        12.64703893933278    9.54193300492240    1.32303818075196
C        10.60394602770116    8.99413330016154    0.98822839084361
H        10.63424638234599    9.22960836653521   -0.06578732101027
C         9.44310566841837    8.50999005954921    1.56011343309922
H         8.54249820465449    8.34083378704843    0.95939683965590
N         5.96746991690043    5.52077696472411    0.26147223236843
O         8.60574309879254    5.62754079272665    2.29039658170463
O         8.51305437271780    3.48675243272005    2.87892138656643
P         7.82353999779641    7.55741060297619    3.50696717459693

