119
CSD_code = VUSSIM | q = 0 | S = 0 | Stoichiometry = C42H71BOP2PtS | MND = 4
Pt       -1.23375547377797    1.10867811565580    4.30671846667214
B        -3.25475228894569    1.31138426209202    4.27314178188495
O        -4.44743154899971    1.44068363279619    4.27259791678221
S         1.24705361584250    0.90407882750407    4.40529962695309
C         1.49554856599142    0.27090165208305    2.81001751860877
C         2.79156227877923   -0.00428154152992    2.36991791499137
H         3.62153536989307    0.18929101774268    3.03497824446891
C         3.00501485817225   -0.51590116258427    1.10721157575877
H         4.01415121459894   -0.72491737207297    0.78033354111397
C         1.93799180775485   -0.76363659603128    0.25642692589782
H         2.11052752386322   -1.16494621923114   -0.73121277083705
C         0.64815150275683   -0.49212818093781    0.68380801724650
H        -0.19232409912579   -0.68078217066456    0.02957377647082
C         0.42625977355935    0.01986491588438    1.94624968048509
H        -0.59364292071876    0.23511237562452    2.28624985876419
P        -0.95100031457936    3.30320396880313    3.60341219618279
C        -0.88976047899811    4.36047215442342    5.13082881114004
H        -0.84338831587017    5.41607534009060    4.83595117063289
C        -2.13483518951094    4.13901716579738    5.98980719454084
H        -3.03671925286731    4.41766777834234    5.44212676793902
H        -2.21098649810807    3.07245713891511    6.22798417316850
C        -2.06201737388102    4.95568730789397    7.27784064605660
H        -2.04960244799334    6.02021033589837    7.02902358456811
H        -2.95305885232370    4.76696328878885    7.88070027944481
C        -0.80876176012715    4.61075269123828    8.07518360914613
H        -0.75851145293005    5.22721628190238    8.97524471430555
H        -0.85043547967670    3.56598865912332    8.38678263619215
C         0.43423619300575    4.82598466548052    7.22017566195783
H         1.32758579479108    4.54816099460012    7.78291785551124
H         0.51916465684161    5.88493284505712    6.96073532660110
C         0.35449908803199    3.99494634080964    5.94411782426787
H         0.30937559290649    2.93270006760106    6.20022551122579
H         1.26182787982839    4.14345863419196    5.35785058756250
C         0.61219637898634    3.78029252907744    2.69162734213817
H         1.37720898305114    3.18402747505099    3.20928728157380
C         0.59044425976744    3.32103921519968    1.23347379646372
H         0.22405626726320    2.29565452933943    1.16189974800879
H        -0.06928165038813    3.96708865395045    0.65025280369888
C         1.99682297769535    3.40430155944020    0.64726337581692
H         2.66082928977875    2.74216416914242    1.20710331308514
H         1.98647841148059    3.06141464706167   -0.38956996991089
C         2.51022430374056    4.83894532784210    0.72123464721224
H         1.88636638080943    5.47928263164372    0.09188978183850
H         3.53171899278471    4.89162493110573    0.33937707524272
C         2.46760191011729    5.34842322358822    2.15879456209598
H         2.80171466091344    6.38810532464585    2.19453876091749
H         3.15201125620279    4.75612686653287    2.77068220940831
C         1.05600713595537    5.24305480963758    2.73939623218279
H         0.38188410612431    5.86735716177491    2.15189108657972
H         1.06841940637144    5.62806127746101    3.75881344676457
C        -2.42215876868806    3.96321971648181    2.66915933572094
H        -3.23220097810553    3.85902682370277    3.40393281177350
C        -2.79810656491438    3.05840685910875    1.49414878343379
H        -2.07733263415799    3.15654679343264    0.68247312935811
H        -2.80069785957833    2.01497299524064    1.82638475396979
C        -4.18352220829364    3.44254650051799    0.98299077589996
H        -4.45936168545761    2.80478735828079    0.14079776900780
H        -4.91390088895551    3.28224464259934    1.77824874843987
C        -4.19967773656201    4.90668101678417    0.55065468108784
H        -5.20045704664272    5.18543862099007    0.21515852788442
H        -3.51685600017499    5.04141597243285   -0.29226586850983
C        -3.76812669330026    5.81584376036712    1.69823291301241
H        -4.49079278130006    5.73632707310443    2.51349432237149
H        -3.75359137030486    6.85572417768617    1.36340979215433
C        -2.38388074068934    5.41743263662183    2.21026634136954
H        -2.09298647476738    6.07752452159596    3.03009071134729
H        -1.66293217259261    5.53749976574276    1.39996159098155
P        -1.47199065507319   -0.99970333287656    5.24280110477932
C        -1.82622825164686   -0.77473410320558    7.05437877902323
H        -1.71070601039426   -1.73312863696713    7.57223070887188
C        -3.23190682150306   -0.24682868652401    7.33752846284922
H        -3.98232097226150   -0.97918342033850    7.03575828603645
H        -3.40312678869579    0.66672347358666    6.76255021749587
C        -3.40383675302760    0.04303674701003    8.82760728652409
H        -4.41133305814031    0.42208125621796    9.00928559977740
H        -3.28901950217884   -0.88513508490495    9.39406321794702
C        -2.37154658094942    1.05743140993461    9.30475661210679
H        -2.52239532000353    1.99673180358102    8.76904954542888
H        -2.50286660964361    1.25374887078222   10.37091907433098
C        -0.96385688164675    0.53443628128582    9.03915028656326
H        -0.80012900854518   -0.37470857215561    9.62402637487024
H        -0.22093185632806    1.26957141429119    9.35675124225978
C        -0.78126758063269    0.22377853121966    7.55856446698400
H         0.22652773334312   -0.15924197691648    7.38068172227301
H        -0.89153488811533    1.14536222583659    6.97098999637923
C         0.03668103459925   -2.11236411322349    5.23595834851191
H         0.86084068949423   -1.39164122222936    5.34271658806950
C         0.18613025472859   -3.14405345706844    6.35339903969172
H         0.09708307790254   -2.67734111323505    7.33502699359149
H        -0.57930093389757   -3.91752610223329    6.26974722869099
C         1.57148925945498   -3.78747168597143    6.26044505073008
H         2.33142654781736   -3.01786074077226    6.41445235243317
H         1.68181301378232   -4.53017883295916    7.05420709987527
C         1.79277147006968   -4.44192637005211    4.90084814142499
H         1.07821516482693   -5.25881740148951    4.76933778444409
H         2.79712432170803   -4.86751559380240    4.85399581634226
C         1.60318376226214   -3.41888243283216    3.78610622715531
H         1.72986919767828   -3.89375236788639    2.81078447594650
H         2.35619528129136   -2.63266691792686    3.87154758973544
C         0.21283781670184   -2.79854524351233    3.88061607302943
H         0.08190969080608   -2.07613283329215    3.07300081991214
H        -0.53022511135865   -3.58996053815512    3.76237744574158
C        -2.95060858513238   -1.93342319214946    4.60957207850849
H        -3.78281418248454   -1.29034121389891    4.92700110821294
C        -3.00342511260456   -1.95892120690427    3.08155505644988
H        -2.84139783537157   -0.94387028720317    2.70287169404604
H        -2.22723289365331   -2.60605920857116    2.67309567108462
C        -4.37005018987306   -2.46696888236650    2.63069291801768
H        -5.14141500600516   -1.77641092205058    2.97765935442229
H        -4.41388673278350   -2.49904592182751    1.54021598646531
C        -4.63212346504845   -3.85858226094856    3.20123194643194
H        -5.61881116363952   -4.20831939588400    2.89142365289010
H        -3.89137050105888   -4.55730264873881    2.80420307006996
C        -4.54512145968513   -3.84261550876678    4.72499356102176
H        -4.71325075320926   -4.84791677780928    5.11816856492631
H        -5.32642859260762   -3.19162065891508    5.12400164813030
C        -3.17897842512094   -3.33000799052704    5.17973286746053
H        -2.40931499157493   -4.01546618615287    4.82153967550199
H        -3.13676727666918   -3.31002975296154    6.27116584842995

