75
CSD_code = VUSXUE | q = 1 | S = 0 | Stoichiometry = C23H43CuN7S(1+) | MND = 4
Cu        8.48630861625392   -0.26176956527356    3.10716014495792
S         6.77228944732123    0.02517297087935    1.31060205188503
N         6.83164316075089   -0.68679883099588    4.46758257226279
N         8.55753783905570   -2.28981773201982    2.82573246771436
N         8.94653270353204   -4.07170468923992    1.32144339669697
N        10.65346137699586   -2.62858077989083    1.94956034818641
N         9.24593511442150    0.85104418919506    4.58953991449069
N        11.07575096063037    1.83842436721443    5.71271879711308
N        10.44859123761781    2.53283966585967    3.58755300568102
C         5.49088076434176   -0.33910766611778    3.99265347083438
H         4.75559728895404   -0.44274469496897    4.80544027858707
H         5.21922513537497   -1.04210763041692    3.20053387155704
C         5.43207985814993    1.05701143997778    3.43565159523146
C         4.80256967240377    2.07088290889031    4.14220675148692
H         4.34244527616046    1.84080137588876    5.09244857906585
C         4.74031547996983    3.36239405135826    3.64612430059556
H         4.24390122193922    4.13517163209959    4.21118210680848
C         5.30745254969175    3.64825311293184    2.41830411321892
H         5.25650207431080    4.64679161357092    2.01294499111358
C         5.93308149499256    2.65070070188277    1.68992240706381
H         6.34718994286859    2.89024998819639    0.72439845423996
C         6.00710895589186    1.36199620364402    2.19652093649063
C         7.52989509410211    0.78780860963334   -0.17656959966195
H         6.72697428667612    1.05361812227867   -0.86336523830849
H         8.07264844003217    1.68080167951904    0.12884481790513
C         8.46816921698574   -0.22998947616122   -0.79837115879818
H         8.97931318030784    0.20869752252961   -1.65198393571301
H         7.91510145790428   -1.10221698086235   -1.13770496059459
H         9.20804099172457   -0.55234478120819   -0.06765832813324
C         7.19933866624429    0.08814829784314    5.64609363941142
H         6.78997001361334   -0.35238104741192    6.56674291818563
H         6.78408611615031    1.09110406491007    5.52812256775678
C         8.71972567650183    0.22581583826394    5.78189266927460
H         8.93611606742543    0.82490328091990    6.67270014891041
H         9.15997242857379   -0.76852013897182    5.91781251940554
C        10.24385055669651    1.67841425666257    4.63772117132987
C        11.58465182207551    3.13256951901677    6.10567542394628
H        12.66460137027724    3.21535820033507    5.95084243268867
H        11.38565088434937    3.28059711991254    7.17044580939135
H        11.08000139398474    3.91373672527624    5.54498311258139
C        11.62108382838680    0.72439395775006    6.45209926494639
H        11.34443119512972   -0.21225392516040    5.97744745204378
H        11.27960474671177    0.72168250068690    7.49091369309869
H        12.71324191263865    0.79579926934912    6.45591782859679
C        11.78565977069833    2.77534135988776    3.08408228732237
H        12.52978505503369    2.38450657853935    3.77059308222801
H        11.95210408782680    3.84553304456661    2.94921504134599
H        11.91973597089834    2.27899079019984    2.11782214159388
C         9.41047552399723    2.65391545303234    2.59557341856796
H         9.36912094609574    1.76248902550872    1.95190069204703
H         9.61037306033427    3.53446291555747    1.98665527453396
H         8.44813507025827    2.76898979905354    3.09141321799243
C         9.32874005649013   -2.96933978183783    2.03521281634107
C         7.67047106938084   -4.15084389029205    0.65040283998925
H         6.98775090179967   -4.85072101349478    1.14115695563687
H         7.83201126033853   -4.49778511692687   -0.37381334287841
H         7.21212377921964   -3.16612035535136    0.60825131154286
C         9.80644183444888   -5.21900646429469    1.14597590576643
H        10.09947667229224   -5.35512633558640    0.10066557640213
H         9.27120754508135   -6.11736990460883    1.46570025680314
H        10.69771423305330   -5.10944326700288    1.75691219194135
C        11.34223285178680   -2.62494779977941    0.67562072951946
H        10.71794431663381   -3.06508725075470   -0.09585436835943
H        12.27531074626999   -3.18814007401569    0.74326461198496
H        11.58053961136688   -1.59871204894068    0.37924140394826
C        11.20137832930201   -1.72686881695039    2.93073532248925
H        10.89222555031917   -0.68569527121588    2.75555166975965
H        12.28791818326685   -1.79452444487706    2.89886089090670
H        10.84884518989525   -2.02120972273839    3.91664141504427
C         6.97652637488804   -2.12730821271859    4.65429147778369
H         6.06562912463620   -2.56930673845160    5.08205762316233
H         7.79910853861317   -2.30597117885304    5.34769599529571
C         7.30991012949017   -2.82494950343189    3.32927012846420
H         7.39308495213561   -3.90347062881416    3.50303461129758
H         6.48784974602896   -2.65522639318965    2.62554201798421

