60
CSD_code = VUSYEP | q = 0 | S = 0 | Stoichiometry = C26H29Cl2NOPd | MND = 4
Pd        3.64084249364673   17.15616273973998    7.90314814946739
Cl        3.02983440392768   18.71923791845081    9.37771254947610
Cl        5.68832183822669   18.00371893942560    7.64072662847529
O         1.55625007097549   16.38093530627373    7.80210524610944
N         3.84757279907150   15.74276275022675    6.52356921212911
C         2.73661987388151   15.34909508435284    6.02556925664648
C         7.04736683613755   13.92233725999213    6.78675857140406
H         7.64274495277642   13.41410154197004    7.52977687311267
C         1.48187990544880   16.14742732653597    6.39034373106257
C         6.43690309783304   13.89315717933246    9.55319300520181
C         5.08647409649237   15.16728499430565    6.19445149155916
C         5.50177253725451   14.65732932943655    8.64000457073364
H         5.64731065186180   15.73331385352921    8.86617926236909
C         5.86552883756339   14.53207212154104    7.17499811747438
C         6.25511580811450   12.54399372728538    9.82962634366944
H         5.42269789734142   12.01121994352592    9.39436144242823
C         5.58227345746669   15.31813368337241    4.89163847466031
C         7.51002318357707   14.56024760056197   10.13302437390415
H         7.65886514471467   15.60969753012411    9.92292789624691
C         4.06397616643446   14.32144839402424    8.96064041919946
C         7.50533430535203   13.97341523834021    5.47758172090666
C         6.78168029078659   14.71200145062854    4.55458996735116
H         7.16204309532272   14.83178613353088    3.55042688094729
C         8.77174860503306   13.27568235685268    5.08871580362132
H         8.56233250781021   12.23549183708528    4.83614826256673
H         9.48248448121148   13.28371517919366    5.91149832544709
H         9.22653745798971   13.74945902287066    4.22247124267222
C         7.13179183436467   11.87490549956547   10.66575825274959
H         6.97809457465617   10.82570947856311   10.87389675677162
C         3.39108859594185   15.07552335621876    9.92648839796943
H         3.91041746970007   15.88033836049685   10.44818047090157
C         8.20121968614831   12.54499297781030   11.23510994013690
H         8.88439920547582   12.02105192425377   11.88726574773337
C         2.59168756985726   14.15396971145225    5.13939303142675
H         2.14440601593422   14.42834043592088    4.18514163662587
H         1.93832477370844   13.42571965854791    5.61631945942032
H         3.55983683813678   13.69331815380065    4.96084704553912
C         2.08690805818682   14.75683100758130   10.27326313398676
H         1.57486573209860   15.34129374183533   11.02287475270481
C         0.17289629210303   15.40701457195518    6.10525409968549
H        -0.66346236409935   16.02812897750125    6.42037071280052
H         0.13842212242800   14.48216335146918    6.67542617976115
H         0.05745420597586   15.18939945609923    5.04854597708519
C         3.40882676117071   13.25436268734479    8.35693090933308
H         3.92170316403123   12.67104834214516    7.60355956556235
C         1.44113989887846   13.69622583130572    9.65851871631748
H         0.42317654667474   13.45271140387525    9.92604237369045
C         8.38814404535326   13.89055477038031   10.96620464365836
H         9.21881408272153   14.42074860677354   11.40864310757741
C         4.88419474701106   16.20594070307781    3.90283223376752
H         4.51790996082346   17.10128281009197    4.40616077889235
H         4.04291479266968   15.70753982478500    3.42202728883589
H         5.58208048133552   16.50965498119644    3.12695333472321
C         1.51763705078404   17.48555754857825    5.62677302011918
H         0.61441673981666   18.05811399886322    5.83616494134177
H         1.57748095549700   17.31237552638940    4.55444708773150
H         2.39341484923952   18.08328901358894    5.94346312372435
C         2.10352464357742   12.94696083118063    8.70168245514282
H         1.60417441089810   12.11426833831099    8.22472624817939
H         0.99306146264717   17.13303567656919    8.05054675732740

