133
CSD_code = VUTDOF | q = 0 | S = 0 | Stoichiometry = C46H64BF15MoN2OP2Si | MND = 4
Mo        0.47249186220259    8.58071606969462   12.17725865993462
P        -0.39803652506208   10.17995890193528    9.31286259722635
P        -2.11623159367885    7.85095647300696   14.18100873685420
Si        0.76502733538043    5.18920053574836   10.72085554447749
F         4.59960650472253   10.86740130995152   10.61915602441499
F         6.07618228282788    9.47413310657512    8.87401417075348
F         6.53732468794576    6.80807562708387    9.26256125970993
F         5.45119973670528    5.55972080834892   11.44323990657299
F         3.96363130449419    6.95889362623038   13.20000929803569
F         5.95758953318817    8.72773971561141   14.20961821107768
F         6.46298115949057    8.27407122368591   16.79032097088658
F         4.53575371359432    8.67448919564019   18.68289757614235
F         2.06748338597048    9.60223925197831   17.91120615465649
F         1.58299771204362   10.11139987778241   15.31405351526699
F         0.91200212529221   11.50504158080667   13.02144586103991
F         0.96492514355494   14.18167018565651   13.04652241947116
F         3.34595372619592   15.52303065330100   13.14665084636866
F         5.68284932498316   14.10686369475417   13.24797596751166
F         5.63412014449154   11.41339099277081   13.21277838979821
O         1.95812753778341    9.18062506013207   12.77161717785128
N        -0.20946801352326    9.55984844132705   10.74084647746333
N        -1.07728362975451    8.10724110608490   13.02406589098364
C         1.11365474705133    6.89179623927700   11.41443677044480
H         2.20482881581736    6.97618993266627   11.37530159106630
C         2.25580140411560    4.67703292651983    9.62996899768017
H         2.07188709490310    3.74093445961464    9.11140525132823
H         3.14748172994734    4.54113237500308   10.23376834517266
H         2.48260333869232    5.42741124548435    8.87776920164317
C         0.62922151129302    3.84443215232471   12.08622000545762
H         0.89695242084850    2.87016008763409   11.68781112553610
H        -0.37728595901953    3.76510095889857   12.48469397166300
H         1.30207157349636    4.05309839329459   12.91225375841339
C        -0.78559457709424    4.97759769198284    9.60793205849588
H        -0.56729853543389    5.22502008017084    8.57413783467659
H        -1.61709881702375    5.59360116597935    9.92759116603638
H        -1.11769142419777    3.94394997172389    9.62768895639618
C        -0.25265036021627   12.09719064648730    9.42920144295607
C        -0.73403689087059   12.86792048081053    8.20379796268234
H        -0.25073770882518   12.52626428845514    7.29374191660083
H        -0.49311335596696   13.92266095033384    8.33678930758231
H        -1.81037753633791   12.79256471647250    8.07481183382168
C         1.23041370806665   12.39202005330646    9.66239191495838
H         1.81022069617720   12.29510882587210    8.74959720137731
H         1.63641493780731   11.72093427520435   10.41940981161576
H         1.35364858931032   13.41646271352316   10.01317817671450
C        -1.01081016873665   12.56000845795797   10.67525755460879
H        -0.60237571690632   13.50438363844472   11.02970513664599
H        -0.90082327421199   11.82426919717978   11.47000735596450
H        -2.06689355793838   12.71865139691093   10.48574785619557
C        -2.15276593228324    9.68180745635234    8.70024147901366
C        -2.40788777134351    9.87410249599139    7.20883351551343
H        -1.81014916533310    9.19938395167549    6.60331827541523
H        -2.20595221489171   10.89410166379452    6.89516850660599
H        -3.45631349397245    9.66003716702181    6.99971121472084
C        -3.15570226751266   10.52276011947893    9.49118316091186
H        -3.17858483438556   11.55280084545080    9.14994156101987
H        -2.91026852652365   10.49338465132683   10.55031401840784
H        -4.15900802378946   10.11680350463869    9.36033800319860
C        -2.38300287060434    8.22423215721448    9.10508989414206
H        -3.45176100096098    8.02638356342889    9.17804109233924
H        -1.92204976838100    8.03470807876146   10.08091190481943
H        -1.97267397026521    7.52602707646513    8.38536474199005
C         0.95046715540343    9.48736029537797    8.12746470828914
C         1.09770153073323   10.20308306970543    6.78781704690792
H         1.79991336275311    9.64427004813873    6.16912196356163
H         1.49693784813236   11.20657945382423    6.90559515579772
H         0.15425664214630   10.26233316070388    6.25360017459883
C         0.58301021208846    8.02215769069764    7.89531130317730
H        -0.27614244217115    7.91806364458748    7.24044859152050
H         0.38825336607423    7.53840877527977    8.85310861763584
H         1.41533484429439    7.50693940432633    7.41663315216917
C         2.28796099087853    9.48736142172215    8.87118384536318
H         2.94508701784775    8.73850318377908    8.43009013611722
H         2.13238466336304    9.22259468234026    9.92385568511854
H         2.79790523794490   10.44264932797967    8.80961188007512
C        -2.76534877943426    9.55540200691632   14.79380455032407
C        -4.03667008869611    9.50143367382728   15.63494290809541
H        -4.89654156420840    9.17566780402914   15.05618108839302
H        -4.25345334454860   10.50257754279848   16.00745910885393
H        -3.92353516041350    8.84356741340481   16.49173305363683
C        -2.95990558584725   10.44735497024624   13.56477021879382
H        -2.14935366064984   10.26575389752635   12.85335675009745
H        -2.91782604217126   11.49406575229309   13.86190681115044
H        -3.91371658610564   10.28671591566720   13.07371870757814
C        -1.64082648518568   10.19148851887427   15.60830838530837
H        -0.71674049814567   10.17809131240111   15.03273947724359
H        -1.49118397885527    9.69863133808200   16.56381665183919
H        -1.88635621938969   11.23199687275265   15.81915652632839
C        -1.23974200443954    6.88208755820788   15.58961856831847
C        -2.00131199449063    6.85625062999638   16.91204285637880
H        -2.04207097248389    7.83713371060830   17.37732805547924
H        -1.48613364914459    6.18873918621285   17.60257502413434
H        -3.01545408948279    6.48856498907969   16.78496845754467
C         0.15549914359268    7.47258863262380   15.79034492432210
H         0.63533300477522    7.65204502062789   14.81507400429196
H         0.77393799468329    6.76181013928048   16.33810128987626
H         0.13233670167006    8.39428239648523   16.36037276967759
C        -1.03297450814082    5.45649644233054   15.08018447056170
H        -0.58205129127019    5.48272720019882   14.08851216065298
H        -1.96047477847806    4.89323137846888   15.05405524972138
H        -0.35328370516404    4.92618010987852   15.74666455267187
C        -3.55036675385636    6.81247790878196   13.43793670800234
C        -4.50613329161243    6.19150602309390   14.45119972708924
H        -5.32138697397348    5.70699760227977   13.91371390462406
H        -4.93789255772493    6.93748067117940   15.11191839241828
H        -4.01869198485249    5.43286453296633   15.05683607062866
C        -2.92577477328604    5.73226701005196   12.55125281062241
H        -3.62039813641800    5.45531923717322   11.75996914408154
H        -2.69061627206803    4.82788884710240   13.10061941140661
H        -2.01361838217117    6.11491510289086   12.08953586436485
C        -4.32527286062188    7.74956855668458   12.51039699233100
H        -3.62932969439704    8.28357661384616   11.86558243635930
H        -4.93577571166306    8.45644187467042   13.06396479858005
H        -4.99760260437116    7.16721226965847   11.88069837001372
C         4.27765927401598    8.97909941202488   12.01388950181751
C         4.82325736427429    9.56640868424317   10.88266621084003
C         5.58457046292238    8.85798037360380    9.95795342522484
C         5.81389172148893    7.50191403103263   10.14728105962258
C         5.26228871899732    6.87118051877030   11.25647416733632
C         4.50148365833160    7.61126472893942   12.15200327464325
C         3.71860758027938    9.37985012182371   14.65067256470238
C         4.96565812580572    8.94135064333727   15.08193647946966
C         5.25142991778790    8.70501549328048   16.42472955331672
C         4.27637441143814    8.91241172194913   17.39323426013877
C         3.02925510338455    9.37947386275448   17.00078474579136
C         2.78930965883959    9.61207264393058   15.65368818724271
C         3.28317020924706   11.35397504504333   13.05030123263611
C         2.12047375356142   12.11107323585805   13.04272292243744
C         2.12212353848769   13.50195299907414   13.07304505806579
C         3.32813601981811   14.18594129007643   13.12613854933197
C         4.51484663434002   13.46151559407494   13.16955625396808
C         4.47156653562730   12.07280003111682   13.14078886886799
B         3.26791471773144    9.70597725626960   13.08869064159988

