99
CSD_code = VUTDUL | q = 0 | S = 0 | Stoichiometry = C28H64MoN2OP2Si | MND = 4
Mo        3.73423439857324    9.35363473022404    9.95874169728348
Si        3.10608477967341   11.83005472978230   12.33341890630948
P         1.34734988840773    7.12542233030224    9.72431252001014
P         5.75804493737834   10.15701592748001    7.45336454283660
O         4.71086587540326    8.77054628623490   11.15147116278968
N         2.22811043711539    8.36888182234527    9.42337107041718
N         4.52225039401976    9.82944414224253    8.33671993157836
C         2.97201669206655   11.00134166724193   10.67916717519895
H         2.33323186427790   11.55886109183542    9.97837932214546
C         4.13522337607147   13.45717469647540   12.28485199768398
H         5.17422000015647   13.25703710351695   12.04019397965517
H         4.11281859896141   13.97042740878795   13.24199436843386
H         3.74823931327981   14.14381945152588   11.53757866313981
C         3.92554088124162   10.67841632162269   13.62183121389577
H         3.19325121157656   10.18757410058639   14.25521163096037
H         4.61656084807292   11.21164309656185   14.26708211697400
H         4.48509106623117    9.90435843487975   13.10046344693232
C         1.38344176415256   12.34516237854410   13.01872427915880
H         0.91351234679355   13.07939427693480   12.37163537237304
H         1.46332014868444   12.78560873170290   14.00808448625037
H         0.71132700636164   11.49486479887318   13.08881182127827
C         0.53032727698875    7.31422775285710   11.46229430146480
C        -0.46037052804023    8.46984117972239   11.31587058175088
H        -0.80708569075750    8.78687400241579   12.29935571685874
H        -1.33641630269650    8.18307675372942   10.74128183785552
H         0.03703308621493    9.31742517483371   10.84283199517012
C        -0.19094918306787    6.07711696342552   11.99111239569183
H         0.50336835344550    5.27357402252078   12.22225450395597
H        -0.92915815331560    5.70526308952158   11.28668879519068
H        -0.70838508810771    6.33934878701292   12.91446021563904
C         1.59026597216988    7.77613813209641   12.46595063914731
H         1.10959570547785    8.32591852923943   13.27422958225964
H         2.30874324327416    8.45657278070605   11.98761360165278
H         2.13066094200358    6.94954899075599   12.91643731293798
C         0.00627712464220    7.06638440071026    8.34214981809301
C         0.72218445939409    6.61756731155800    7.06691049699847
H         0.96145544119032    5.55843829996441    7.08477781485455
H         1.63291709221076    7.20006637438395    6.93406253382324
H         0.07984572113636    6.79064859405887    6.20282875668191
C        -0.45226749080209    8.50576663054784    8.09168937335422
H         0.40370877337122    9.17908540490749    8.16692774959439
H        -1.21466707974990    8.83118393894550    8.79080661750925
H        -0.86945687350278    8.59166403373729    7.08881113719356
C        -1.19049447354652    6.15821895866087    8.59999728107841
H        -1.80981143902596    6.12232755605883    7.70282453735548
H        -1.81099139768060    6.53066579813454    9.41072727747370
H        -0.88159779016411    5.14351982327557    8.83539721642468
C         2.42197791768440    5.51326708354818    9.68005195787593
C         1.65594192769999    4.19907869188339    9.55790143522975
H         2.35801151467440    3.36889991634412    9.64538235255591
H         1.15686233705549    4.10667575470790    8.59685001301662
H         0.91367877887725    4.09497420189979   10.34403908912160
C         3.42358471582616    5.66589841887812    8.53309209497358
H         4.28597630976451    5.02211246396476    8.70487360075893
H         3.77483994424130    6.70230657727148    8.50060754427882
H         3.00482904545566    5.40146177140782    7.56739069336970
C         3.24369936834555    5.50663460103045   10.96986519781393
H         2.63705980174983    5.25146682724428   11.83345470761129
H         3.71611257813368    6.48236520951124   11.12495446968878
H         4.03390881008676    4.75813515938345   10.89784128824664
C         7.31276979012758    9.17846631741567    8.05501551642063
C         6.86742772599742    7.77182125799710    8.45905588331360
H         6.59830408826805    7.14542494296242    7.61564743460357
H         6.01466305520906    7.84410652176883    9.14299012051540
H         7.68041098553208    7.27712704104580    8.99078474629897
C         7.78058792727478    9.84732639168386    9.34812762374465
H         8.50599464688205    9.20449197044155    9.84782340365206
H         6.93054620228012    9.98230921984770   10.02520112816070
H         8.26593377146106   10.80077774781366    9.16397894376657
C         8.46968143938856    9.11164668606059    7.06119755962547
H         8.76085662309812   10.10057033428569    6.71934623430957
H         8.22546531048524    8.50299296050122    6.19443985058872
H         9.33247091546633    8.65682762860583    7.54915874044111
C         5.29703217097575    9.65434118129015    5.64912062483110
C         6.18135738737769   10.23185539784238    4.54957098961372
H         5.88798196415312    9.79871846998440    3.59244673627368
H         7.22943304975566    9.99918638837570    4.71598446322370
H         6.07275635684024   11.30974334153770    4.46749551473552
C         5.34570806966198    8.12680264491664    5.58486543731391
H         4.77868768847909    7.70595139554860    6.41408590622826
H         6.36348415305426    7.74836891190060    5.60554756882344
H         4.89043932731099    7.78318157702155    4.65513073610128
C         3.83216877343863   10.04302877875784    5.42820379697934
H         3.41144599472378    9.45088716650241    4.61577388543561
H         3.71059581091790   11.08842062337455    5.16683690239214
H         3.25904692382182    9.83850129938732    6.33537267796402
C         6.11116082317204   12.05194322760924    7.55482060007375
C         7.42810635062281   12.52816064975110    6.94885034976280
H         7.53243329443692   12.22080458534765    5.91216615025759
H         8.28559006364226   12.16246630597496    7.50721237493535
H         7.45628554316340   13.61783496434800    6.98123671598993
C         6.01689307137703   12.47413100661787    9.02501256298688
H         6.95403102224855   12.35032630359392    9.55709976286181
H         5.23743486975200   11.90000254450178    9.54014398127652
H         5.74919972261877   13.52826150755599    9.08540926137840
C         4.94174244707513   12.72696599459232    6.83686747777118
H         4.94128640937974   13.79489801989051    7.05482164744018
H         4.00295892540274   12.30677762984410    7.19712063715222
H         5.00657672592566   12.61712757502682    5.75812981284230

