72
CSD_code = VUTFIB | q = 0 | S = 0 | Stoichiometry = C19H6ClF36IrO7P2 | MND = 4
Ir       28.35514057821774    3.93125367087010    2.84733222388844
Cl       26.49076634679665    4.83732268562709    1.75229789159210
P        28.09558443504619    5.70281737102632    4.24393999709216
P        28.22788302496575    2.34794533315394    1.22386099955977
F        29.73703980735607    8.47427761638457    1.37520076561839
F        28.14190763550386    7.62588871160589    0.21260278198677
F        29.34208328069857    6.36375036386498    1.46516063753023
F        28.50561187388509    9.86773377761665    3.35949946070002
F        26.46975625406894    9.31115419193923    3.72429682767885
F        27.08699361191426    9.86946888032929    1.73953513250370
F        24.52104334637043    6.77129581314768    6.34628482350467
F        23.27237513469591    5.18511804680831    5.60225775800934
F        23.97710763815032    6.72077505801225    4.27246914992812
F        25.71607138616710    4.47572179614068    7.27323355405814
F        25.07776183785149    2.99098015719643    5.86705601415574
F        27.13275854495913    3.64372241067633    5.88076323385931
F        29.32567806043789    7.52900597180111    8.62174955821933
F        27.74338258185247    6.21735806905122    7.99182933387544
F        29.75525202134159    5.48352643268780    8.11624053251247
F        30.71746787386789    8.78018854991327    6.51012559761551
F        30.85995413702110    7.56328701100470    4.74242038407651
F        31.58394781179000    6.81750435426891    6.61854371534718
F        30.45728502145941    3.79007297312942    0.36113851971070
F        30.34595090554669    5.48768660747027   -0.96347131879539
F        30.61997539110328    3.52003317148576   -1.76837284111533
F        28.31686809681852    5.20258722600978   -2.92497775325521
F        26.55960050847408    4.18200139598772   -2.22273535336988
F        28.20898849316395    3.05557408270977   -3.00372816837588
F        28.20213944202657   -0.79146573407983    2.40870842952890
F        30.25496103925957   -1.36637703744665    2.17080643484749
F        28.74366991620580   -2.25818120752311    0.93154101593579
F        31.66210600262247    0.06104118474480    0.32645409881375
F        30.63561084099459   -1.34697747524389   -0.93410820318480
F        30.53782833853226    0.75742450522379   -1.36349547969146
F        25.12778107976607   -0.50415216163645    0.53327159504921
F        25.15695616579218    1.01075671070599   -0.98058324473894
F        23.53094167807680    0.93709003056836    0.42691452278717
F        24.82579549142709    0.43995512056737    3.07106108058939
F        26.11244010110018    2.11101497755018    3.48340166396677
F        24.08731956883695    2.44657736093152    2.85938989500023
O        30.73576454463147    2.76221544814282    4.24569419164609
O        28.33846755108097    7.22226036796841    3.72539230651416
O        26.61767457914669    6.03976024259497    4.86389031390613
O        29.04542369655980    5.80381050536368    5.52451711265351
O        28.08562054569764    2.80485354548906   -0.34218224604532
O        29.37041797727551    1.23217774955926    1.16349766361729
O        26.97264009718388    1.32153487531596    1.14536914130421
C        29.83157419338331    3.20710519814103    3.71560458321216
C        27.77703378907326    7.74457841692401    2.55743799418623
C        28.76894642657358    7.57751638748858    1.38768089594314
C        27.46489068391562    9.22804802922642    2.84044043135188
C        25.56455887504388    5.13008224869043    4.96815614927644
C        24.31269451240868    5.96254676104107    5.31633649845234
C        25.86024810964652    4.05263663889772    6.02813794448501
C        29.21136442008375    6.95482758402128    6.31540301944466
C        29.02186133890460    6.53673886962200    7.78760117837393
C        30.61946102753850    7.53309553501779    6.05377762800383
C        28.46566455312856    4.04737345737662   -0.85077812367804
C        29.99625657971660    4.21312250953479   -0.82965714059338
C        27.88994926107322    4.12017959433417   -2.28074666070712
C        29.27895853609895    0.01090106334369    0.47227452594096
C        29.13068564539026   -1.12330244395839    1.50958818061450
C        30.55739615477429   -0.13982264341501   -0.37694045645210
C        25.63595014883317    1.72358218057814    1.20881506048627
C        24.84244521825822    0.76995333951850    0.29246458535829
C        25.14385047506699    1.65643917835038    2.66993150558932
H        26.83553591279916    7.24533097989237    2.27917007148734
H        25.37564128814781    4.61763894652699    4.01190943665675
H        28.47366711565079    7.73483722139287    6.08538026459807
H        28.03057166381111    4.87408930851900   -0.26795359953356
H        28.41484804067058   -0.02944348074464   -0.20361756997973
H        25.48485173429659    2.75207438101254    0.84488984683595

