47
CSD_code = VUTKUS | q = 0 | S = 0 | Stoichiometry = C20H21Cl2OPPtS | MND = 4
Pt        7.27258417544264    1.57889124616112    8.13143977226252
C         8.94785615164687   -0.15942747481160    5.82556037891381
C         9.88987383968844    0.76131519563536    6.25085177215233
H         9.60841058628450    1.51781481170571    6.98245761880124
C        11.18412177419015    0.67741465854427    5.76823795970635
H        11.92977075405035    1.38531385727964    6.09614038737922
C        11.52144508798045   -0.32910791416009    4.87553601152968
H        12.53291271426472   -0.39894777258272    4.50452818467417
C        10.57469280507862   -1.25743798830684    4.47088340762963
H        10.84792248209864   -2.04836027371333    3.78886767302056
C         9.27752802130994   -1.17592492212984    4.94857124205459
H         8.52322395592645   -1.89622785125080    4.67070864731857
C         6.50268123454158    0.88043304948599    5.02128528584831
H         6.65993666950604    0.26010470563789    4.13950015645562
C         7.11068353943449    2.28227222368655    4.91822615806749
H         8.18986756704711    2.27797042775355    4.76091888218464
C         6.33391038581801    3.07868012423710    3.89502164474520
C         6.99830838565753    3.49086620356497    2.62860865580795
H         6.31775645328299    4.03733889683049    1.98290847231090
H         7.36148399366637    2.61484138921576    2.09106894232087
H         7.85634954754357    4.12591898670104    2.84910916198959
C         5.07682401906229    3.27261724017589    4.30356747387850
C         3.94131888544000    3.92306153296185    3.59404382480735
H         4.26990478756808    4.40352761333997    2.67752720801911
H         3.47404432063399    4.67261662841396    4.23089373029630
H         3.18177769956740    3.18123092805362    3.34511474547388
C         4.85260099098134    2.59369592026297    5.63545103684104
H         3.91723110421880    2.84000615079223    6.13476775355551
C         5.02695972392791    1.07783872417632    5.39032712969243
H         4.78883591643042    0.50308532368302    6.29130942603111
H         4.36016781467652    0.73944036348385    4.59567609352527
C         6.72977411122173    4.73262230319023    6.49870986349572
C         8.04983126675779    5.15326607413574    6.64070887708235
H         8.83089450852694    4.41250862970146    6.75409120998703
C         8.34433762804148    6.50248726100295    6.65711964946512
H         9.36681580098447    6.83177380220884    6.76585749706829
C         7.32269125081116    7.43353042175042    6.54725848911036
H         7.55216621000251    8.48839646706782    6.56597248426193
C         6.00702238972434    7.01611351242484    6.43150282900178
H         5.21342616648271    7.74562103102910    6.36441693616404
C         5.70460839239988    5.66617632400237    6.41285357991959
H         4.67872935344402    5.33675521750801    6.34407956635498
Cl        8.25095356580947    0.09836858883996    9.53992723270129
Cl        7.37748025281722    3.23449455659777    9.66704782499347
O         6.67397002945804   -1.32790453500495    6.48301214141651
P         6.44590856315476    2.95430431981521    6.52886954135255
S         7.27460512340249   -0.01247597909924    6.46466344033271

