41
CSD_code = VUTKIG | q = 0 | S = 0 | Stoichiometry = C16H19Cl2OPPtS | MND = 4
Pt        5.77330135820289    2.02957623047552   10.07221319867133
C         6.65272437004289    3.02228424440507    5.77253404032231
H         7.61087479407702    2.53587205267745    5.68032950611348
H         6.10887217995990    3.23234235886419    4.86698068968593
C         6.19951303122045    3.32152003128817    6.97098585106779
H         5.24050230156635    3.76206440607195    7.18800463316027
C         7.61253338414606    4.55122474050035    9.05638730524651
H         8.03896690087078    5.10126992910965    8.21854714482187
C         8.59715786603767    4.30441402629190   10.20680345166880
H         9.50490858440073    4.89991968373064   10.09825203186326
H         8.89161642782704    3.25058800483341   10.22299786373015
C         7.84623466462452    4.69479152990384   11.49980953282236
H         8.34090169760454    4.34319249488995   12.40340745170199
C         7.61146546769634    6.18576051526833   11.42450961719080
C         8.33796447808664    7.11229159453661   12.33648064278177
H         9.38548387408648    7.18472319638107   12.04123383647566
H         8.30947726294544    6.74294214804676   13.35973137580874
H         7.90511651779664    8.10800161739097   12.31342441529015
C         6.80900531383550    6.47283452387752   10.39546753491348
C         6.35989188731862    7.79567524633072    9.88213073014630
H         6.73541350592902    8.60700852899716   10.49803046272707
H         5.27089150867380    7.84039273094497    9.86942803264388
H         6.71236627070584    7.94361995489354    8.86113851463581
C         6.38030727109886    5.20944476312246    9.68489831899406
H         5.55058909114962    5.34764182296098    8.99141936597219
C         4.94288761829385    4.76334624495257   12.20764315659059
C         5.25404193661713    5.33845631561538   13.43305055285968
H         6.27766143297857    5.36694945192486   13.77366150234149
C         4.24093080534846    5.86092336079999   14.21748119530926
H         4.47738236132240    6.30916253944915   15.17095125208251
C         2.92532488060804    5.80121840881345   13.78826127138066
H         2.13926678268018    6.20641998590396   14.40765364484959
C         2.61170856486258    5.20772660816725   12.57490138537570
H         1.58348879269967    5.14561536155973   12.25229602410692
C         3.61692367737671    4.68174603393494   11.78749659550022
H         3.39042412038019    4.18198276176134   10.85351784662715
Cl        5.33034129247208    0.26034287771359    8.73884090266374
Cl        4.38589179071963    1.26935086315715   11.67119285777854
O         8.35711429818632    2.22473472394862    7.98429693213127
P         6.15538621362366    4.01549345505828   11.10629283563294
S         7.13614542192619    2.85813463145339    8.42801649631985

