104
CSD_code = VUTLIH | q = 0 | S = 0 | Stoichiometry = C48H49Cl2NOP2Ru | MND = 6
Ru        1.04150724875218    5.05347902796825    2.29536557458360
Cl        0.36875811431667    6.06244193615148    4.36282604184458
Cl       -0.11897391787702    5.76932233491996    7.19649482576231
P         1.97848803043351    7.03391443506047    1.65153505110064
P         0.12050486058151    3.03855332263936    2.84590506349257
O        -1.51197461052847    5.88070398749325    0.97699414375377
N         2.83476085529770    4.51584571321552    3.34230935996350
C         2.90862263350799    3.49197984581467    4.25635997469076
C         2.29783522343862    2.22920623928139    4.27271677983927
C         2.56237387681204    1.37924294716163    5.33580815380633
H         2.09414638028764    0.40632926163287    5.30961997453499
C         3.40456503387130    1.70432577708769    6.40205007315188
C         4.05031312405142    2.92856763141562    6.36151804395553
H         4.74327200407062    3.22254023610321    7.13535013167944
C         3.82768941568975    3.79294145609171    5.30265132674394
C         4.38918359282342    5.05976691630692    4.96627428536128
C         5.35742211075749    5.83741955285411    5.58673918479950
H         5.76621446316913    5.49704838885153    6.52414497821986
C         5.78614752044890    7.00340128327316    4.98301707371573
C         5.23859760471821    7.32914599469495    3.73561566171187
H         5.60511747032146    8.20651629026697    3.21931598861589
C         4.26301050722344    6.58474030475661    3.09669391377749
C         3.77569676058340    5.43582701759666    3.73930437213229
C         3.80464765224717    6.99967433796025    1.73055843637476
H         4.09393207974753    6.24571515944287    0.98481071199341
H         4.22239698263556    7.97013686257634    1.44047715404444
C         1.39129027925170    1.76391633265130    3.17190665775463
H         0.92657787338346    0.79940205756160    3.40473362779908
H         1.94131890371814    1.67848926332712    2.22446961385837
C         3.63881676065351    0.76868447876241    7.57874159186842
C         3.21784684663014    1.48454042377475    8.87084168476204
H         3.79807966680284    2.38973840248352    9.02698838017629
H         3.36607593814710    0.83237889153675    9.72937550071243
H         2.16560629107316    1.76019881135965    8.82420408494310
C         2.83907438258507   -0.53323420335797    7.47768291492623
H         1.76931960257415   -0.33654508158310    7.44377261796337
H         3.03806452637512   -1.14897761420579    8.35292989053477
H         3.12599918885661   -1.10268448479799    6.59645785783005
C         5.12894310238005    0.40806978516775    7.64855474587935
H         5.43993202472716   -0.08044424602126    6.72730877926714
H         5.31543071128154   -0.26895343684270    8.48008247509521
H         5.74237854619388    1.29412514998250    7.78602597042052
C         6.83245333088208    7.92452188371056    5.59135046872161
C         6.22663588544916    9.32397438303432    5.77431802296370
H         5.91959789755675    9.75163771942869    4.82333173707929
H         6.95533983863013    9.99360123629971    6.22708602446046
H         5.35464738470143    9.27362904284390    6.42424941744593
C         7.31566979210563    7.43436120586596    6.95894206364309
H         6.49047288024959    7.36867964424590    7.66478558464641
H         8.04719989732414    8.13386530257822    7.35939804192108
H         7.79218353449030    6.46024429993461    6.87713750743365
C         8.04776017674086    8.00275303308598    4.65695616331822
H         8.46304023235325    7.00941070432363    4.49976658552267
H         8.81842335401222    8.63541563465278    5.09330054993778
H         7.77836672624432    8.41476116442165    3.68816680395668
C         1.72447118425204    7.66048270148739   -0.03745804031521
C         1.26558564467726    6.81088143581829   -1.03599080432812
H         1.03860725863150    5.78228293644549   -0.78388135056655
C         1.10100090614064    7.28281999005849   -2.32640601694945
H         0.73876711525002    6.62134348373441   -3.09949777806067
C         1.39553272185889    8.60256584299342   -2.62537097199140
H         1.26177144085139    8.97231715802664   -3.63128767145399
C         1.86118862044750    9.45173243306785   -1.63357730491043
H         2.09232925100574   10.48091629941097   -1.86716306125073
C         2.02801345672545    8.98454251986440   -0.34385044262800
H         2.38279397929936    9.64825984258858    0.43379232594306
C         1.44925205924014    8.47648836896717    2.63029097759346
C         2.18739132584623    9.01892756620277    3.67612779656596
H         3.16752002623969    8.62939408320408    3.90887389711448
C         1.66248058910471   10.05863197364736    4.42515583055879
H         2.24429171372596   10.48089557627174    5.23180872380762
C         0.40000771802873   10.55374346523289    4.14772960543343
H        -0.00487032588798   11.36357405596912    4.73647556759154
C        -0.34785624694098   10.00419103007119    3.11731423739714
H        -1.33637953178918   10.38336538670300    2.90320847855771
C         0.17027802985464    8.96752886348560    2.36669300314367
H        -0.40827266640400    8.52883244766575    1.56220353179303
C        -0.92675901851111    2.17100663895046    1.63652882808596
C        -1.79617473393062    1.16470325593066    2.04815992123900
H        -1.88220679969982    0.92395125742997    3.09951540261643
C        -2.55589425028012    0.48357621592047    1.11570812951066
H        -3.23331143305680   -0.29363016871816    1.43861811287302
C        -2.45046506870293    0.79720601177677   -0.23010479476151
H        -3.04827538448425    0.26511338211802   -0.95534839848050
C        -1.58022436545997    1.79210575516334   -0.64410226465546
H        -1.49740543420580    2.03578937613915   -1.69301204317828
C        -0.81899046482063    2.47778809670730    0.28550296287860
H        -0.13493418263448    3.26004595335184   -0.01985865499869
C        -0.98401712881203    3.05369970764448    4.29643543331915
C        -0.71594138308627    2.44266050133097    5.51609078011542
H         0.18287140282541    1.85899616696320    5.64843135922494
C        -1.60273748050833    2.58750739121572    6.57051713966951
H        -1.38884958017830    2.11063999005682    7.51608279190692
C        -2.75381363867214    3.34073892518623    6.41997095943653
H        -3.43804103857785    3.45326434630331    7.24763129007880
C        -3.02462622109252    3.95632914168550    5.20713871609981
H        -3.92053897151781    4.54754893293572    5.08731417956232
C        -2.14285135874559    3.81794143991077    4.15408564709705
H        -2.34266224096144    4.29713295366089    3.20206705033374
C        -0.52480322518639    5.55371585483101    1.47671768894504
C         1.01559247224511    5.44306808430254    5.88350957750226
H         1.14712904008281    4.36272882571426    5.79886381425585
H         1.95916464726087    5.94797270859551    6.09376482295220
H         1.63636097355172    4.40263574168781    1.04855935229394

