103
CSD_code = VUTLON | q = 0 | S = 0 | Stoichiometry = C47H50BNOP2Ru | MND = 6
Ru        0.33892314667037   12.78962698576813    8.06529914068942
P        -1.89335854625022   12.96797222798148    8.52587695989027
P         2.57143767093115   12.74784353696030    7.57249255492021
O         0.97340197207930   14.59786628251968   10.35874829211266
N        -0.08968736239689   11.26328590177029    6.51520686814378
C         0.74144952410224   11.26885120134957    5.37019541113854
C         2.13154146274387   11.31353218320470    5.23753224674149
C         2.66199933119860   11.27999431011750    3.94966389676103
H         3.73787970954275   11.30835208849731    3.87106603210553
C         1.89781229857294   11.21774593085281    2.78829495233963
C         0.51842885501755   11.20129700757171    2.92969424898764
H        -0.13481203435049   11.17008336460451    2.07185453547390
C        -0.03916065650213   11.22180139293201    4.19557286257651
C        -1.41507338643206   11.20876989573799    4.60941340652642
C        -2.58342611793455   11.20515053044372    3.86179822694320
H        -2.50923474686321   11.20278838625200    2.78742303862550
C        -3.80407841971144   11.21591585180337    4.51187284876103
C        -3.79552962339818   11.23244133650298    5.90757443068921
H        -4.73874309722935   11.25978787195248    6.43380283123679
C        -2.64515761127574   11.23629836760740    6.68285359389064
C        -1.41454114110415   11.23650897064414    6.01570595865022
C        -2.78475544098953   11.39254202937620    8.16913813356627
H        -2.31412782940655   10.57847252001341    8.72371702237318
H        -3.83806673718289   11.47294159639182    8.45595658391033
C         3.09657694211452   11.43936466427146    6.37899467251449
H         4.10340579044437   11.66851232107206    6.01231308081479
H         3.15030794936127   10.51064414100580    6.95813844250167
C         2.51370187919427   11.17833520641309    1.39805875252495
C         4.04425289710044   11.21114781640514    1.42167234624207
H         4.41075611659716   12.12764306460951    1.87898172269402
H         4.42203677409770   11.17229878473836    0.40180962583482
H         4.44690019277016   10.35609590688676    1.96005944992609
C         2.02274235938115   12.39355312897736    0.59868839067180
H         0.94191987860994   12.38508278854718    0.48969931584414
H         2.46525542158755   12.39250780059666   -0.39538264133122
H         2.30646113254342   13.31540402514793    1.10253132899934
C         2.07452432127745    9.88436947757060    0.69861814588673
H         2.40650124027748    9.01834721600255    1.26765215735092
H         2.50784146455145    9.82995731249293   -0.29796845043058
H         0.99347732817276    9.83408259264097    0.60352570050097
C        -5.13640695136012   11.24388431521988    3.78012567755456
C        -4.96742429159304   11.19325280176485    2.25929665055336
H        -4.41094632001262   12.05545491475408    1.89945126090650
H        -5.94637718387439   11.20383723234566    1.78414154167822
H        -4.45474802017692   10.28389206900226    1.95406577930959
C        -5.97900091730022   10.03397536919728    4.20630716926095
H        -5.44830137374880    9.11006033733063    3.98581132494867
H        -6.92399749545458   10.02695209774650    3.66695056003227
H        -6.19664448839181   10.05621122303582    5.27035335417792
C        -5.87041166095804   12.54391164977898    4.13800317339150
H        -6.06166755384581   12.61216648293494    5.20552351091655
H        -6.82320736178866   12.59347598803274    3.61482512429046
H        -5.27015214674175   13.40454232194361    3.85089400045810
C        -2.29180651730435   13.35388733232071   10.25535181186647
C        -2.17776573571388   14.68764912944952   10.64448539044157
H        -1.92226426397265   15.42992931914625    9.89759334356004
C        -2.38391001468395   15.04691621792025   11.96167954801567
H        -2.29499259151959   16.08112939104572   12.25962287052992
C        -2.69699940076152   14.07715139559716   12.90223838100362
H        -2.85569750016488   14.35632558579535   13.93344896933656
C        -2.79792481195014   12.74947742924573   12.52274080150724
H        -3.03434958328205   11.99384502545122   13.25813711194990
C        -2.59151129509491   12.38364034742753   11.20367463649361
H        -2.66039616086630   11.34401982010342   10.91586398602729
C        -3.04084039749313   14.06725757050617    7.62439670991799
C        -4.30368020672204   14.34168128553486    8.14128545411810
H        -4.56922462558084   13.98841049079493    9.12928587816291
C        -5.21232933821026   15.06992848134345    7.39692143876347
H        -6.19066035687880   15.28458841620663    7.80260127723121
C        -4.87283473331813   15.51989013947485    6.13073102028241
H        -5.58812069443669   16.08436063998421    5.55049975302493
C        -3.61901274991604   15.24509227258828    5.61207148152909
H        -3.35144404944490   15.59584588423431    4.62589634515687
C        -2.70525488749475   14.52045721149940    6.35615129351672
H        -1.71948540415562   14.30826026541304    5.96332207396866
C         3.81877514149321   12.46878500958713    8.87506263952217
C         5.16895264043898   12.69115401102142    8.61614357111550
H         5.47554012009213   13.06457843999777    7.64807018997455
C         6.11067831458145   12.45419502362546    9.59898510474178
H         7.15690016454557   12.63198817773789    9.39596315845285
C         5.71459708020080   11.99322853374146   10.84512988072040
H         6.45320252385331   11.81250626294466   11.61227289149695
C         4.37361879777142   11.77000895459281   11.10696200861652
H         4.06342356226706   11.41524909327124   12.07889699868764
C         3.42749675131718   12.00656289206816   10.12465490472101
H         2.37557639934975   11.84095206590145   10.32279413226697
C         3.20702694227385   14.28573327250656    6.83732229020929
C         3.32680102725011   14.47363550658308    5.46561687214422
H         3.07465502177133   13.67410158048610    4.78388333551212
C         3.75290475446386   15.69434839433324    4.97102477676493
H         3.84931846873534   15.83549744930764    3.90384145478446
C         4.04940857413724   16.73366225024456    5.83602974192990
H         4.38257405702107   17.68388198591708    5.44490601738556
C         3.90505014008558   16.55832643802298    7.20371236654981
H         4.12040827750882   17.37322571041438    7.87928445566610
C         3.48035197791493   15.34257425340637    7.70288289583959
H         3.35226532074584   15.19894828664659    8.76855739649789
C         0.71977880176255   13.90049158954005    9.47149919780482
B         0.26340546108369   10.39074608679442    7.74036590190155
H         0.37738182381129   11.33591318620316    8.84677115839679
H         0.24003756784959   13.94272739951828    7.04415418497354
H        -0.61164723077009    9.65410019752488    8.05016392029556
H         1.30642569436113    9.83970147577454    7.64545373189706

