54
CSD_code = VUTNUU | q = 1 | S = 0 | Stoichiometry = C23H25ClN3RuSe(1+) | MND = 9
C         9.24750437370441    9.22452368259281    1.31183636004212
C        11.74495270109182    7.81991345706182    4.93311392367693
C        13.17111299379262    7.94144881562127    4.44578057325226
H        13.73115441086003    7.07712935705625    4.81816388783782
C         9.51177158500921    8.80702376234663    5.27984470855816
H         8.86080370648420    9.67058866869945    5.20039996386211
C        10.80295886515065    8.85803898410153    4.71477062016602
H        11.11282418610045    9.76280340589904    4.19986244320888
C        10.00801310505507    6.61279977727128    6.18471889054253
H         9.72400029954605    5.76081843956677    6.79234228978419
C         9.10234752862847    7.69042417227516    6.04026025350683
C        11.31434004543424    6.69519308677864    5.66316911048578
H        12.01714896884181    5.89353632245778    5.86797052559068
C        13.22538119227981    7.91259089987511    2.91576939402450
H        12.83846259950661    6.96259469030798    2.54094069660300
H        14.25314518935975    8.01616508358175    2.57929670213964
H        12.63947923505239    8.72971933435455    2.48329959684354
C        13.82605208581804    9.21068791642957    4.99765940540199
H        13.37798358938393   10.10561081381509    4.57290740977918
H        14.88342102684291    9.21229682964266    4.74868051214430
H        13.73039064915988    9.25348684935778    6.08024643793071
C         7.77242440769599    7.65197029594432    6.71694139035508
H         7.90588781017215    7.48798025302686    7.78542402171986
H         7.17891464608793    6.82618253906876    6.32367770650752
H         7.22568140350783    8.57947054620804    6.56785755912719
Ru        9.87772665853732    6.97566978812241    3.86615780253750
Se       10.14558437957845    7.51837444967859    1.55038520796706
Cl       10.65577673954667    4.93327055124814    2.97815970858162
N         8.16938559779133    6.29074163862630    3.27539339273481
N         7.26547945379714    5.93990201395100    4.09337030516300
N         7.81647490893121    6.04474895705343    1.99957619627865
C         6.23179127373733    5.41163640667601    3.38434804683595
C         8.10357559279500    9.52739653350685    2.03918373329594
H         7.70894712009446    8.81814751789299    2.75951829591392
C         5.72930277777237    5.00000760341680    1.01841605365321
H         5.99959766898881    5.03900927106260   -0.02427979668184
C         6.57849241086924    5.46918132536280    2.01143383146652
C         5.00848535222542    4.87525165960626    3.78707701685224
H         4.74450631649861    4.82554342225975    4.82997027653441
C         8.68391393825009    6.33397540669319    0.90654592471614
H         8.13990467445190    6.83112417282281    0.09585030656546
H         9.18209777460415    5.42574524578854    0.54288322744338
C         7.47462858066811   10.74386788511872    1.84375255705313
H         6.58098797425036   10.98193886063331    2.40042431676659
C         7.99308035769805   11.65628310319740    0.93687571970728
H         7.50062631086553   12.60488246245328    0.79060966211532
C         9.77422744382505   10.13732107068631    0.40640565034941
H        10.66903065236352    9.88442088557738   -0.14573541516844
C         9.14169353790040   11.35567876064085    0.22280706007268
H         9.54515789407368   12.06834316585262   -0.47940412158495
C         4.52798908554034    4.47194657524041    1.43987578322535
H         3.83632416325709    4.08929492088946    0.70607104912200
C         4.17585720191508    4.41095039854484    2.79587316333472
H         3.22269755460328    3.98264796403314    3.06282066205454

