81
CSD_code = VUTNOP | q = 0 | S = 0 | Stoichiometry = C38H37BNiO2P2 | MND = 4
B        -0.68000106082377    5.15713599709331    1.31613388953436
C        -3.02736509742434    7.18549176793202    4.39964644695720
C        -2.94456508207775    7.72505578678184    3.11914036700808
H        -3.47475332155815    8.63978755885909    2.89037810031638
C        -2.19203607982460    7.09631431171069    2.14837748996765
H        -2.14449903409525    7.51966240243997    1.15487283544504
C        -1.50592135782870    5.90349517022058    2.41293370389945
C        -1.59394852658429    5.38648330715103    3.70701092877791
H        -1.06369141769604    4.47185683385385    3.93425816903957
C        -2.33151181244396    6.01353891045424    4.70172601482387
C         0.09145386169556    5.95959306175056    0.22840098848210
C         0.61975275277580    7.22910032240469    0.49218370236370
H         0.49672290025051    7.65467968085820    1.47856948715838
C         1.31223007645158    7.93777154414811   -0.47122809133737
H         1.71749181841646    8.91210012545740   -0.23785111557149
C         1.48200978295143    7.40342966072894   -1.73817395232700
H         2.01731233423219    7.95878508446590   -2.49464623672201
C         0.96150638248060    6.15295157409010   -2.02974700565005
H         1.08950690980999    5.73213466656194   -3.01689157381006
C         0.28523640815931    5.44071056747317   -1.05755550355016
H        -0.11972728688392    4.46722873958528   -1.29621068232028
C        -0.63434572890156    3.59910330318947    1.34208049791795
C         0.51368688009978    2.89491088224653    0.96121361768832
H         1.38428684081666    3.44810933286885    0.63767046039600
C         0.56476262938652    1.51445422916411    1.01282438314285
H         1.46750513171267    0.99653811403408    0.72171657229193
C        -0.54148335554954    0.79315513437438    1.43153636593350
H        -0.50513724272693   -0.28603059739730    1.46666454146793
C        -1.69504669872845    1.46385711567262    1.80430146457463
H        -2.56268883555532    0.90739388815538    2.12929372113751
C        -1.73439762948025    2.84457677048367    1.76701675556845
H        -2.64229853662274    3.35662791510571    2.05435759829425
C        -5.71239375199083    7.91296964218089    4.99360085773618
C        -6.68749349940180    8.66404860131133    5.64800760905405
H        -6.39716094554426    9.28279945317786    6.48866707506180
C        -8.00291105509770    8.61312413716031    5.23207537609836
H        -8.75338293845916    9.20170332661532    5.73936679071245
C        -8.36014281621113    7.79619808595493    4.16993732584615
H        -9.38974820005539    7.75024447799550    3.84688203231975
C        -7.39946558615043    7.02999374035248    3.53255223025436
H        -7.67988207019474    6.38325034841020    2.71351463025881
C        -6.07822972625365    7.08174351648826    3.94272575076953
H        -5.33402562043423    6.47363802672531    3.44762227495605
C        -3.55831821736370    9.70649175915930    5.45274836728285
C        -4.25068066137460   10.59866340369399    4.64244748387814
H        -5.15753098979778   10.28858278759911    4.14174758733951
C        -3.78287710005673   11.89173463769576    4.48716522863717
H        -4.32562190935187   12.58459103466960    3.86014641223950
C        -2.62614814777620   12.30030388505719    5.13019815033053
H        -2.26850493489666   13.31188334180693    5.00578739401756
C        -1.93239409132130   11.41338429933990    5.93789468510795
H        -1.03275835574586   11.73116277531997    6.44453508667040
C        -2.39998659482088   10.12369355814530    6.10039724117283
H        -1.87715237688921    9.42282850564795    6.74003213507193
C        -3.04723457455707    3.61441899061032    6.03063773491352
H        -2.24234726036881    3.05202689366903    5.54186698972588
C        -4.25488288616174    3.71457626946188    5.10170406471920
H        -4.73441059740479    2.74272601974589    4.99611704058428
H        -3.96736548515086    4.06524770310655    4.11248952846929
H        -4.98504550819408    4.41301700769515    5.51512921441748
C        -3.45548202816475    2.92860476434891    7.33026081516216
H        -4.16159426862719    3.56026587731339    7.87136296031665
H        -2.60153747699006    2.74689563142498    7.97674641555701
H        -3.93544357811946    1.97340114981824    7.12201126748181
C        -0.62773002762801    5.13547999782486    6.76917338114236
H        -0.19106538241331    4.44941689735422    6.03398238775534
C        -0.43190685897108    4.58526934878026    8.17800696085818
H         0.60038362332270    4.72064717091916    8.49753856540899
H        -0.66147526019339    3.52392649343238    8.22722912815158
H        -1.08060623422022    5.11508547081979    8.87738857459386
C         0.02950033514387    6.50760912063914    6.64635491682385
H        -0.45214687828513    7.20680061867155    7.33068495223979
H        -0.05841943880811    6.90011609505249    5.63405746812416
H         1.08589190635986    6.44963981610912    6.90377409973918
C        -5.36679214302335    6.11734535834171    7.86686845857142
C        -2.80430756405231    7.64258597505337    8.81292728138342
Ni       -3.72879998483620    6.76934546539304    7.56033123609741
O        -6.48300468298994    5.86559720937734    7.92349070854193
O        -2.24252520734684    8.21305490382932    9.63329249827610
P        -4.03974367908505    7.96616781240724    5.70367660861149
P        -2.44464587444193    5.34239543235495    6.40024107663023

