89
CSD_code = VUTPEG | q = 0 | S = 0 | Stoichiometry = C43H36ClNO3P2RuS2 | MND = 6
Ru        6.98974247165285    3.61250833371955    5.05761864588615
Cl        9.09421370704096    2.84619219147534    5.82336508671309
P         6.82978210440042    5.02197781784419    6.89353281424394
P         7.07889593048954    2.08813462228186    3.30718470126909
O         4.62282811752029   -0.41916260652889   10.51391327707873
O         2.85460375333199    0.54014920363501    9.59138353759753
O         8.07197795909583    5.79255318237073    3.33290975177730
N         5.92037203129530    2.11838952786415    6.20685922848015
C         4.36205927572016   -0.66085174406668    8.13453539188311
H         3.52126723400002   -1.21144800745220    7.70388292183038
H         5.22226744704069   -1.32540338177296    8.21951093632090
C         3.97866648868922   -0.18350957594991    9.53495644472162
C         7.66688320430456    4.94923212674239    4.00417645327346
C         5.92540702618260    4.27725969883743    8.27712410480156
C         4.55529779483333    4.47581542840398    8.42136063524708
H         4.03144505104243    5.13064500463552    7.73657245395564
C         3.87261532550448    3.83485048078908    9.43980532831070
H         2.80987247600778    3.99158588685128    9.55398887338678
C         4.54720730566816    2.99448396536154   10.31087478002339
H         4.01404219274219    2.50025208482147   11.10793331263142
C         5.90447477262810    2.76618994426805   10.14490810550488
H         6.41838710934611    2.08972801018965   10.81169996203884
C         6.59299285038395    3.39459498875895    9.12403544294102
H         7.64902109208801    3.21248963690755    8.97007538544108
C         5.95952907430086    6.60914314457962    6.66359198609206
C         5.76533055874686    7.44676186713133    7.75960504359817
H         6.10992304277282    7.14133334603453    8.73743568591813
C         5.12862344741625    8.66172461644800    7.59877693109223
H         4.97688879286255    9.30525331387922    8.45310191248024
C         4.68563509824049    9.05486835194229    6.34502798039794
H         4.18911580729644   10.00610753248495    6.22249125370847
C         4.87787788997529    8.22691905208984    5.25292742138917
H         4.53147132007046    8.52840160818575    4.27555750059036
C         5.51312237376534    7.00719624467263    5.41038509011497
H         5.65007469437946    6.35232602091552    4.55931144081252
C         8.37584266397564    5.63023128990865    7.63762841244241
C         8.51841452348699    5.87769372443287    8.99931784223531
H         7.71662082756199    5.64549750110308    9.68664084726276
C         9.70088207765943    6.40636535974478    9.48470294129405
H         9.80774230203158    6.58979446033436   10.54410868712367
C        10.74382739468567    6.69611484519846    8.62115368215818
H        11.66658037604529    7.10335933019217    9.00729999889068
C        10.60352759638223    6.45800611755860    7.26394706791119
H        11.41580365028691    6.67873219845599    6.58769036374220
C         9.42432944200384    5.93007297459194    6.77318647652779
H         9.31603572406027    5.72882397532372    5.71506314663869
C         8.71848502993315    1.58172131762739    2.69963734228680
C         9.71026717551367    2.55725541867649    2.66461946617884
H         9.49905240940294    3.54466174030700    3.05431092837398
C        10.96227069069835    2.26170856610879    2.15967414259739
H        11.72893829742962    3.02178781889322    2.14586352628995
C        11.23315649736925    0.99085153637379    1.68028363493872
H        12.21271306439061    0.75595284991078    1.29084839555998
C        10.24756550868940    0.01854012324934    1.70541372525094
H        10.45654932267304   -0.97393830131526    1.33278526217591
C         8.99255083788175    0.30855271872397    2.20984957192004
H         8.23615995183895   -0.46410020210070    2.23309971799781
C         6.29872994893657    2.56879961036425    1.72934475175359
C         5.75394574138550    3.83475728581876    1.55881181671951
H         5.76458646292503    4.53846009922041    2.38134131489785
C         5.18187009597681    4.18907132380680    0.34924702750056
H         4.75721301867143    5.17418072735068    0.22583064725532
C         5.15231707610965    3.28244784723067   -0.69589708374487
H         4.70479029363097    3.55816658168768   -1.63931663268098
C         5.69622587897110    2.01759482665626   -0.53133727697539
H         5.67297681487829    1.30820529558785   -1.34575124286458
C         6.26948569700298    1.66062210180489    0.67345646338419
H         6.69352126847907    0.67450207754590    0.80030730425249
C         6.24227682487014    0.52399098386699    3.69145546811218
C         6.91338925470185   -0.42852045423579    4.45546886997807
H         7.94274053242592   -0.24798313134314    4.73771201363390
C         6.25992744273869   -1.58093442414038    4.85005192378360
H         6.78477185568114   -2.32783818154523    5.42858205554746
C         4.92994641031659   -1.77643353090140    4.51177581373887
H         4.41940952246518   -2.67432783868665    4.82802937449078
C         4.25216241055523   -0.81778493238144    3.77639218022177
H         3.21118512002506   -0.96206499287301    3.52638063978208
C         4.90263999719731    0.33232852118653    3.36603398087767
H         4.37307407530450    1.08743590546722    2.79941607585014
S         4.51268216505039    3.76809818803781    4.76901315015284
C         4.71338099590895    2.45393630267838    5.81473836128954
C         5.93779850774073    1.03808177662741    7.03859259919273
C         4.70716519885599    0.50720835413055    7.27674321394943
S         3.46051129282911    1.42205856497714    6.44766134127730
C         7.21346734238064    0.51970305281435    7.60834374485767
H         7.17768662988006    0.55222834589084    8.69558904877269
H         8.04391142641747    1.12655905729792    7.25238032707338
H         7.37301708369914   -0.51358692463571    7.30474674085699
H         2.47786343912556    0.71806031016776    8.71631099772399

