43
CSD_code = VUTPIL | q = 0 | S = 0 | Stoichiometry = C13H23IN4OPd | MND = 4
Pd        5.14614579391292    7.69832441750460   13.63809915014160
I         4.02070427856550    9.37981883654486   12.10010961294475
O         8.58902219010019    9.15943926795669   16.62040548858461
N         6.01762280668989    6.35067901033004   12.02664417682461
N         5.92511825515509    6.09712486836973   14.95337855723015
N         7.07401502523994   10.69792300845023   17.38887392925498
N         9.28612045827897   10.84339023204544   17.96022252500418
C         7.15021520193610    7.20976209538737   11.66969661269025
H         7.64798764294379    7.58872702706772   12.57207054637624
H         6.78789876628159    8.06510487825681   11.09427014616971
H         7.88766923339348    6.66487379088899   11.06015550227085
C         5.26732789606179    6.00644293491588   10.82342858441148
H         5.88285181231721    5.43166968243947   10.11651058636308
H         4.92600781744314    6.91798284203250   10.33331059857913
H         4.38864182001286    5.41538768374364   11.08816394432326
C         6.47388257978629    5.13466764500278   12.70038290219393
H         7.31711630711707    4.67798978104338   12.15254783196130
H         5.65350327645683    4.40972461107534   12.69527032878158
C         6.92019722813341    5.38629782614705   14.14529180951723
H         7.83682466969588    5.98481499306992   14.15057812316071
H         7.15762178607462    4.41073358994867   14.60579157820324
C         4.72285491902071    5.28807306103417   15.15799876255755
H         4.97135758411677    4.30894984495577   15.59626759720469
H         4.19338007893164    5.12854844525062   14.21348356061469
H         4.05052441951316    5.81370516209760   15.83964714612714
C         6.51846828267468    6.41473555386378   16.25037899439460
H         6.87265767594813    5.50125803951880   16.74864701534225
H         5.77678624798512    6.89481763817566   16.88784507717243
H         7.35696023350495    7.10276023097596   16.13292281589750
C         5.91525372676751    9.47468466499254   15.64062886820097
H         6.83900874777012    9.43319241381716   15.06556179292261
C         5.89926277409167   10.13328895121341   16.86263226190959
C         4.70309593812551   10.24098296268341   17.56659450895667
H         4.67926379962787   10.77656796002585   18.50575821458039
C         3.54925849685973    9.66744623257628   17.06380412697172
H         2.62287785352122    9.76607575798193   17.61170880588057
C         3.57435648859817    8.95516323302526   15.87279943079279
H         2.66660001668136    8.50223544080977   15.48634335850419
C         4.76633751192395    8.85587340881965   15.17522759865977
C         8.32709744778427   10.16038082286275   17.25387690629370
H         9.13367709237704   11.79569603651149   18.24341939949605
H        10.23840177041677   10.57999341268288   17.77035478716527
H         6.94022404801934   11.38969170409157   18.11189643523640

