82
CSD_code = VUTPAC | q = 0 | S = 0 | Stoichiometry = C40H33ClN2OP2RuS2 | MND = 6
Ru        3.06730351458225    2.48706203347546    0.57740472422730
P         2.86286560435463    1.92930952214909    2.81547829574709
P         3.08812397523040    3.30188316378987   -1.58948304402552
Cl        3.53831445583209    4.69102008300943    1.26324918906617
S         1.65803995053990    0.51269419871728   -0.10138337854267
S        -1.20381991625473    1.71061619850768    0.10078151426352
N         0.99639870708729    2.90591450546562    0.59425462289527
N         0.06343870750011    3.81747654431703    0.81832573548062
O         5.84371541475330    1.40771601627217    0.40996675374600
C         4.78606933814697    1.85860428020295    0.48158902953867
C         0.53649062753395    1.73434541781901    0.20966092463226
C        -1.12860326073365    3.40295566064464    0.62232170691942
C        -2.34789802555776    4.21548869493691    0.80043159268427
H        -3.00208424963431    3.75511683660562    1.54015367767705
H        -2.89181365934788    4.28795248679782   -0.14072379537400
H        -2.06311824007020    5.20995432065046    1.13318759313018
C         3.87116644112457    2.86914546697317    4.00292700432855
C         5.16715118442531    3.19872073745481    3.61866864090437
H         5.50303696748511    2.95142919453205    2.61944823408909
C         6.00565597770073    3.86069237525028    4.49506967458332
H         7.00713305037609    4.12176840658985    4.18729741923199
C         5.55803499930321    4.19552617016231    5.76263050445099
H         6.21012831267958    4.71838737384924    6.44677174518768
C         4.27036642452831    3.86617712811831    6.15055090448631
H         3.91788125737091    4.12996934672157    7.13741695899563
C         3.42634266685649    3.20284475118989    5.27781381008999
H         2.41789112296470    2.96359882236125    5.58717711210392
C         3.26546943964439    0.22848883480379    3.33323539150098
C         3.11004873122479   -0.14954481480432    4.66483751496506
H         2.73298144489007    0.56265776462424    5.38550975312776
C         3.43475996108123   -1.43237735440738    5.06091921978880
H         3.31036956605378   -1.72344668547282    6.09398190906434
C         3.92014622809017   -2.34488285913408    4.13628572875866
H         4.17297786848818   -3.34688492019993    4.45028280273618
C         4.07972624421719   -1.97178867042166    2.81292509103630
H         4.45628938160961   -2.68042671739100    2.09032999854039
C         3.75494178933837   -0.68772300628519    2.41118827909153
H         3.86821171543955   -0.39482047826773    1.37451770252122
C         1.16454504777239    2.15178401783281    3.41166962421688
C         0.27355712704841    1.08428961281402    3.47008153156939
H         0.61673397928972    0.08290401443302    3.24334209304491
C        -1.04929544299558    1.31146016353810    3.80712876417180
H        -1.74131555483675    0.48268989095981    3.84878261208448
C        -1.48676585289608    2.59766171749008    4.07928337442362
H        -2.52016650924595    2.76883905335600    4.34525521518737
C        -0.60592763890645    3.66564652691420    3.99825593689575
H        -0.95282181611309    4.67017063470286    4.19074185233502
C         0.71434088120988    3.44946569879746    3.65236391674663
H         1.40316165749707    4.27778739984359    3.54510074536895
C         1.46644378077143    3.95389978395894   -2.07351180563529
C         0.55583953198197    3.17782347497373   -2.78427458740519
H         0.84195801167440    2.19333760536441   -3.13240779374339
C        -0.71449943440166    3.66629568781273   -3.03477894012842
H        -1.42118968822812    3.06244991412066   -3.58577652340845
C        -1.08132818495837    4.91999791292281   -2.57291899127504
H        -2.07263606993562    5.29911766681319   -2.77674202965383
C        -0.18502314667635    5.68232036288307   -1.83936875344681
H        -0.47944148043905    6.65003497249041   -1.46111777438398
C         1.08241381381417    5.19885379568059   -1.57667026089531
H         1.77949822900194    5.76606054444826   -0.97333927509776
C         4.22934021612914    4.66863404652350   -1.96507616009266
C         3.92935067992159    5.66454311266322   -2.88869175094885
H         2.96110720968993    5.69275400962414   -3.36969968788553
C         4.86489274739023    6.64171828218875   -3.17738468117938
H         4.62419156855101    7.41777142309035   -3.88976186163412
C         6.10169583946846    6.63047847402754   -2.55485755783040
H         6.82607717706224    7.39915935076439   -2.78077190878898
C         6.40488984119669    5.63818808212391   -1.63713703823567
H         7.36566779253344    5.63076300157644   -1.14441511210502
C         5.47389624528224    4.65983065007273   -1.34395834961409
H         5.69587709059067    3.89394266492460   -0.61185911427326
C         3.50725087472222    2.16078365821042   -2.94772768140580
C         3.40164681966212    2.57659929559435   -4.27270529446170
H         3.04426714178636    3.57166680465824   -4.49785599292294
C         3.74762002440086    1.71576931334266   -5.29612048966748
H         3.66013346878575    2.03982448194937   -6.32306569690085
C         4.20632855515663    0.43930271337962   -5.00769498993435
H         4.47474762114222   -0.23073284717837   -5.81113053731305
C         4.31900296671767    0.02463504244407   -3.69194655719687
H         4.67517066435932   -0.96901429076570   -3.46422364099221
C         3.97219441642873    0.88316688506020   -2.66335167802245
H         4.04813608089743    0.55980456648335   -1.63226369052976

