55
CSD_code = VUTSUY | q = 0 | S = 0 | Stoichiometry = C18H28N6NiS2 | MND = 4
Ni        4.86463123663468    0.34509208010550    0.48423252359870
S         6.03822799611954   -1.09843217142272   -0.71888766266072
N         6.32536896333319    1.54180181765532    0.86829995513394
C         7.47845202789813    1.73161548616573    0.32997683887276
C         7.93351985664461    1.01599860331470   -0.79429067293354
C         9.06354775579720    1.23103194405172   -1.63311926043712
N         9.15624511896822    0.27513293437685   -2.52677879174043
N         8.13604005663908   -0.57471492633766   -2.30792615211416
C         7.35890900300501   -0.18091477045822   -1.28149153839465
C         6.04743303323638    2.14260595478639    2.16252149164123
C         4.63376038225121    2.72096284576858    2.17724984843565
C         6.17695320430690    1.02494385338384    3.20634604551264
C        10.02255073712518    2.36404524277441   -1.58277600646423
C         7.97362139042970   -1.75560220286756   -3.10121669707719
H         8.16708612242375    2.45832013729272    0.76787057689759
H         6.77929130549278    2.93796767579146    2.37576950525595
H         4.39194401403649    3.10976030269608    3.16356811763893
H         4.53783733266215    3.52297417389809    1.44875253457203
H         3.91403968426919    1.93354176774564    1.92765433479550
H         5.55624462464228    0.17290460456062    2.89395618519498
H         5.84427066398337    1.36577133374770    4.18352214218085
H         7.20906356403400    0.68711784729343    3.27921247315348
H        10.50145209985133    2.41429677728200   -0.60555036642907
H        10.78179306412414    2.22410951354350   -2.34623618925752
H         9.50654984073685    3.30714160644834   -1.75956924437872
H         8.68592125924932   -1.70490041333202   -3.92098488690958
H         6.95430421081567   -1.80622604364041   -3.48701609015088
H         8.16196737445157   -2.64802546085581   -2.50098343696521
S         3.47478119904667   -1.17061964260737    1.15013906329399
N         3.38814634962106    1.51113074269235   -0.74083368413517
C         2.06527540555852   -0.23272471309814    1.37193474944745
C         2.16006394124362    1.60285910655188   -0.37964045588913
C         3.73645601855946    2.13783531180344   -2.00410726376437
C         1.57336647902900    0.91012418278613    0.70716538597569
N         1.11441833691872   -0.59054267483434    2.25843092158746
H         1.46997996069144    2.23363734386798   -0.95237577006151
C         5.01268790026249    2.96221435133620   -1.87931382162495
C         3.91848450692552    1.02148347372820   -3.03542846746357
H         2.91445638347244    2.79873311910963   -2.32903531049448
C         0.30179314289430    1.13811130580682    1.30459326690318
N         0.05737344969986    0.23989467798548    2.23039513447708
C         1.14356604310921   -1.72064594611689    3.13738775991196
H         5.23031018353412    3.45238034690176   -2.82507269344411
H         4.90548010654936    3.72275409647341   -1.10891513557577
H         5.84330726466641    2.31096545742974   -1.62232810701475
H         4.63584704622354    0.29844745969840   -2.64968307471062
H         4.28417206500407    1.42611355815613   -3.97545893259502
H         2.97509491041627    0.50902578333052   -3.21073392033876
C        -0.65609784417543    2.23214543806720    0.99935203019517
H         0.27245660869757   -1.65800418464028    3.78495830683367
H         2.05796100933212   -1.70975710457255    3.73383869485501
H         1.11401106099172   -2.65036829976025    2.56488387994283
H        -0.97201108647981    2.18099251519741   -0.04218681775882
H        -1.52687863050540    2.13277915601847    1.64061399884293
H        -0.19422773457712    3.20411462494725    1.16931468560877

