43
CSD_code = VUTTEL | q = 0 | S = 0 | Stoichiometry = C15H23BN2OPt | MND = 6
Pt        2.83357346366789    7.25989978908979    1.02658472014234
C         1.95074626765090    8.86546647261652    1.96238235173794
H         2.31232309097858    9.84213918471746    1.64130605824960
H         2.16951717494921    8.74810480003920    3.02642444131864
H         0.86644875518079    8.84569488239066    1.83791065714490
C         4.56817269020234    8.35961666126951    0.82755674504002
H         5.35790596881436    7.71620147184662    0.43121294086674
H         4.88094265454345    8.70547355090173    1.81477553839742
H         4.49139998746106    9.23530422960933    0.18236791720725
C         2.17549670803461    7.92988099623071   -0.80576204533845
H         1.66249778323080    7.08878682968179   -1.28130070618650
H         2.99534661630421    8.23890822191142   -1.45542991883944
H         1.47879419044826    8.76552772516961   -0.73229278297601
B         2.99291977024861    4.81605177585704    2.56860522177907
O         3.39841680138408    6.23769168672028    2.95266508115061
C         4.61102521081050    6.39447416337859    3.62799796649947
H         4.58282787318300    5.87099404261993    4.59000087559015
H         4.77017806044679    7.45786987784539    3.82253586310709
H         5.46317073146417    6.00949864259679    3.05037946714720
C         3.27499286968465    3.72247876401033    3.73987921838761
H         4.33798642901392    3.57841743029438    3.92601369092900
H         2.86800851711074    2.74751183294457    3.47904769888173
H         2.81752185182648    4.01783925829256    4.68271179115103
N         3.76520938755098    5.44500618455257    0.24468139459444
C         3.72449139622298    4.45810185549471    1.14719612761043
C         4.26532686801842    3.21191326530786    0.82281239048933
H         4.22940170959695    2.42019712885645    1.55383046520245
C         4.84588609955794    2.99952705324645   -0.41157893794980
H         5.27073522201854    2.03853914440732   -0.66599716142971
C         4.87901043763136    4.04765023648438   -1.32182328557226
H         5.32409531583391    3.93116379641291   -2.29777414440305
C         4.32372976118167    5.25457794905242   -0.94524499300482
H         4.32583108407963    6.10131729811227   -1.61982796192607
N         1.10350107361523    6.00621924526132    1.38911552117864
C         1.42157576650604    4.95903261093334    2.15656300175799
C         0.42185081215952    4.05801593049592    2.52985925395027
H         0.67983753954708    3.21631571720169    3.15166873590817
C        -0.88262930475409    4.24675876633407    2.11954169687195
H        -1.66000656948938    3.55407368275511    2.41004265673546
C        -1.17961101003409    5.34831914447996    1.32871318649328
H        -2.18401006975149    5.53977228384645    0.98424372912470
C        -0.14855282672635    6.20239737222754    0.99149976555627
H        -0.33188615940490    7.07436904450303    0.37640576742656

