36
CSD_code = VUTXUF | q = -1 | S = 0 | Stoichiometry = C17H12N6Re(1-) | MND = 6
Re        8.22185363081234   13.37922417709037    8.35707001737577
N         6.84607826430676   14.39223690977998    8.06152727806652
N        10.33285880680472   12.02803512450418    8.92085436276185
N         6.82350382438974   10.79885857313524    7.00727205187045
N        10.18353696630452   13.56697710703308    5.81812287974257
C        12.70412857301597   12.44783974598257    8.85514525547246
N         9.78314504445076   14.72414285002568    9.11088360639669
C         9.38007601795448    9.81159691742654    8.98022548442835
H         8.68478156065166   10.16816451106510    9.74074067979353
H         9.69722345905134    8.79833740472049    9.21778395902044
H         8.83451685177349    9.80287241602400    8.03484479775804
C        11.36250571924576   12.89749134887418    8.92854408299023
C        12.17407122374527   15.18785201302109    9.15426957940715
C        11.08027057870004   14.29575434607383    9.05770709536810
C         9.35012145262381   13.51699577257002    6.61128776425229
C        11.85330748127500   10.20940417990558    8.79250656795358
H        11.99350430875687    9.13971360148967    8.74312137765358
C        13.50637242354582   14.70427678304358    9.04123392448931
H        14.30784928058483   15.42927268766218    9.08575307003034
C        13.76620403141875   13.38570461855852    8.88846565567244
H        14.77982124475657   13.01831477326639    8.80126755019313
C         7.24377796604329   11.75486292843651    7.49392505121701
C        10.55102451472454   10.72838641502868    8.89089766008469
C        12.92177304326336   11.06693300632752    8.75926874702936
H        13.93521104575641   10.69543466328948    8.67793281216523
C         7.80721098280293   12.71365513481988   10.28189397542797
C         9.56260898855341   16.01934714328985    9.40456121837446
C         8.15942836482554   16.48461507330112    9.60762023962168
H         7.64308369288956   15.82306694912522   10.30640092003291
H         7.60619613551495   16.43007028893326    8.66485168908461
H         8.13842248383928   17.50519000375669    9.98290508761048
C        11.90988891818590   16.54458174508340    9.37092029705951
H        12.72467152670240   17.25135904285509    9.43431624147686
C        10.59995503137643   16.93821062950794    9.53030640358709
H        10.35977845251982   17.96868575253414    9.74677008952071
N         7.78333810883511   12.34283536245814   11.37230252701406

