65
CSD_code = VUVBOF | q = 0 | S = 0 | Stoichiometry = C26H32N2O4Pd | MND = 4
Pd        5.46501267560305    5.15581287882731    2.52654405968320
O         6.04004948847106    3.20010018284195    2.39613538404494
O         9.46821410935044    5.63233540029832    1.64517373085128
N         7.39449944502041    5.66465130995768    2.44941890402383
C         7.12881866237812    2.77223492088833    1.85920146448347
C         7.23125033022624    1.38490594869490    1.57693056561012
H         6.38417674382879    0.76715596946816    1.83793497775067
C         8.34012840391612    0.84258196771244    0.98575063538298
H         8.37065922236121   -0.21782836232483    0.77843486106792
C         9.43028554725857    1.64524277754559    0.64334637081293
H        10.29828609120409    1.21112075620576    0.17207248036409
C         9.38467973569029    2.98718757934277    0.91998433037287
H        10.21964375828672    3.62703827296265    0.67787129006618
C         8.26414150127476    3.57187027625731    1.53107182516772
C         8.31662627879618    4.96455658095884    1.87238579910283
C         9.26150445434105    6.98483670581214    2.03418601436036
H         9.19898869586773    7.60043482702083    1.12949129527026
H        10.12099303517907    7.30651633269607    2.62230767101767
C         7.93186443798482    6.96692486281842    2.81390482314137
H         7.24504545191679    7.74912340402065    2.47441318353104
C         8.08165990706306    7.09105241987092    4.35682309882481
C         9.02737311478795    6.01904538219695    4.90457946136447
H         9.08303290209903    6.09634068117127    5.98790970049924
H        10.03486474010973    6.12419365722930    4.50954878269850
H         8.65913890514465    5.02549939627488    4.65233995719086
C         8.60279200879271    8.48984919155359    4.69529206692723
H         8.67519750067359    8.60659657624270    5.77387569337587
H         7.92411985581043    9.24894075877196    4.31388545249951
H         9.58792787526307    8.66730031572199    4.27113793307584
C         6.70454916075000    6.90525001816042    5.00185030426493
H         6.77136452140140    7.05817858719292    6.07678386897155
H         6.33543518569784    5.88508694039536    4.81500312041952
H         5.99022619473493    7.61545348578123    4.58895569814145
O         4.88996851385650    7.11152347054478    2.39614110831898
O         1.46181732718961    4.67926667136237    1.64519066717286
N         3.53552368097845    4.64696998236419    2.44945978897739
C         3.80119374025151    7.53938223549797    1.85921365039807
C         3.69875525678602    8.92670890798529    1.57693458116914
H         4.54582668937193    9.54446410587002    1.83793378732405
C         2.58987352068286    9.46902442578359    0.98575408056062
H         2.55933695389704   10.52943367019344    0.77843328665324
C         1.49972031066546    8.66635609657005    0.64335497287195
H         0.63171680471209    9.10047145963525    0.17208033452089
C         1.54533301445539    7.32441314752061    0.92000045520260
H         0.71037232486716    6.68455681294548    0.67789051416322
C         2.66587405897587    6.73973973960885    1.53109185736672
C         2.61339659816493    5.34705548069620    1.87241528190497
C         1.66853640523864    3.32676680356026    2.03420156514775
H         1.73107069807757    2.71117208998459    1.12950579253479
H         0.80904265701691    3.00507661887498    2.62230985277910
C         2.99816473725530    3.34469144499256    2.81394046038982
H         3.68499550683345    2.56249967231427    2.47445738642278
C         2.84832974046122    3.22054501180326    4.35685433830543
C         1.90258943479233    4.29253477355049    4.90459768479609
H         1.84690205275081    4.21522645540059    5.98792553283666
H         0.89510917640929    4.18738070274896    4.50953938460781
H         2.27082036303361    5.28608720430442    4.65237864917832
C         2.32719967638778    1.82173792995544    4.69528538258288
H         2.25476555795573    1.70497269084256    5.77386510211095
H         3.00588861271815    1.06265797556147    4.31388536825062
H         1.34207684593673    1.64428479702123    4.27110180946530
C         4.22541291541917    3.40634465280089    5.00194113480214
H         4.15855917574777    3.25336602401274    6.07686513756969
H         4.59451179653489    4.42652462181139    4.81516498232597
H         4.93976591117315    2.69617432192316    4.58904126510446

