94
CSD_code = VUVDIA | q = 0 | S = 0 | Stoichiometry = C45H45MoO2P | MND = 9
Mo       11.99865687524558   -1.50321140402469    7.49688301694896
P        11.44882586725290   -1.33967196855670    9.82730194160265
O         8.98846873585073   -0.86235721897903    7.67440393604780
O        12.00521079485052   -4.40402420654726    8.50689707790137
C        10.11984254088256   -1.07798299413514    7.62706381300377
C        11.91586187337230   -3.31212188087905    8.14766333646388
C        13.04580670964524    0.44764515149403    6.66359757427059
C        12.60157798721021    1.87698310502069    6.45625047444317
H        13.42578447990748    2.54263560599673    6.73290209021091
H        12.40064710714014    2.02709611511094    5.39165891140994
C        11.37781715383697    2.27148441064021    7.23933820932531
C        10.12321849294614    1.81709001458458    6.85208155123135
H        10.03092743162971    1.18026168763321    5.98301255961977
C         8.99040012761027    2.18636824114081    7.55458182331562
H         8.02328586803835    1.82361242640843    7.24077671979834
C         9.09707931060070    3.01829622670064    8.65668276297462
H         8.21365598903034    3.30648663171606    9.20742447044958
C        10.34003215129944    3.49126522011553    9.04057547343821
H        10.42933862361517    4.15361487795912    9.88997318262766
C        11.47131645782001    3.12436044645781    8.33220492094449
H        12.43554095339899    3.52181863368896    8.62253461227207
C        13.02985485177850   -0.57558634089478    5.68189965425793
C        12.54887019049719   -0.37079354283111    4.27230040965307
H        11.52799184496549    0.02259140591124    4.27045675998314
H        12.51270685948014   -1.33251636906810    3.74992479719905
C        13.44431786053905    0.57630302867338    3.50603663612335
C        14.79685529896341    0.68975056780136    3.80264179801358
H        15.22364270119552    0.09429391607436    4.59665725461470
C        15.60809277788932    1.54832909221632    3.08327162455928
H        16.65857169158899    1.61853609219886    3.32590465303155
C        15.07837492786362    2.30865427554104    2.05549286609975
H        15.71060629619567    2.97989700004550    1.49319380030982
C        13.73161870281475    2.20376137634671    1.75177202566381
H        13.30939541954850    2.79415965123915    0.95157614560454
C        12.92183882394930    1.34465918630386    2.47261594131358
H        11.87053149916356    1.26797922845589    2.23076918002686
C        13.82190800139590   -1.68250218514354    6.16760501101091
C        14.16259522510243   -2.93726409946494    5.39043725548376
H        14.22785856219452   -3.77816115943641    6.08716498286685
H        13.34316976016894   -3.15328932000145    4.69940773564148
C        15.45185437643716   -2.84409590347666    4.60862004965202
C        16.64591453268432   -3.31455805585957    5.14288304354944
H        16.65543623378101   -3.77494316823907    6.12043984926794
C        17.83147041763752   -3.20995872505520    4.43694159037037
H        18.74812047191001   -3.57741086959229    4.87481065214901
C        17.84206692198720   -2.63657090216744    3.17752120286253
H        18.76739497903520   -2.54956067949468    2.62730955572084
C        16.65541022517578   -2.19034443576161    2.62221808710323
H        16.64737863168327   -1.75577394293310    1.63319369210027
C        15.47145523090725   -2.30079955556300    3.32913271803684
H        14.55316277740265   -1.96472136993159    2.87221135925110
C        14.28242916680096   -1.34023386818806    7.46009489276623
C        15.26867793080699   -2.10159606586481    8.30730484219099
H        15.41633306085074   -3.09768907224403    7.87883909429156
H        14.87860998436808   -2.24630347296654    9.31863535706585
C        16.60059467337616   -1.39852965364047    8.39946431081156
C        17.23335446010449   -0.92260849662030    7.25883977618503
H        16.76401617570007   -1.05112255735966    6.29505643276126
C        18.46012802867782   -0.29191192647948    7.34497670542676
H        18.94170765721371    0.06475739031166    6.44638691607561
C        19.06606610563988   -0.11243791023671    8.57585184593236
H        20.02077072609440    0.38747980359793    8.64450838393026
C        18.44004820323604   -0.57494172816053    9.71945452640607
H        18.90425782288938   -0.43659339372388   10.68526143160014
C        17.21788520510550   -1.21637331385558    9.62957854068618
H        16.74007052883011   -1.58234640597446   10.52922831931160
C        13.78782728639161   -0.03370747336287    7.77514165212821
C        14.27140100783299    0.81759740619861    8.91129062550310
H        14.49887875361226    0.19880575934931    9.78379481994077
H        13.48378556959654    1.52094589525478    9.20353605541918
C        15.50902672672030    1.63059790814013    8.59155911922280
C        15.94197029449641    1.87027770344026    7.29618491725267
H        15.42181408963329    1.43236464435004    6.45826678247079
C        17.05072406029142    2.66423166951060    7.05896548241191
H        17.36662477321972    2.84453642639479    6.04184058553388
C        17.75010487926293    3.22115001743091    8.11314367760977
H        18.61617114929768    3.83892842538037    7.92735574398654
C        17.33393410849730    2.97744019934693    9.41087859365974
H        17.87655997749082    3.40169563976298   10.24312727242662
C        16.22169804637803    2.19201682069914    9.64508121317106
H        15.90008069975100    2.00985040550094   10.66177754420712
C        12.67359077456470   -1.86856183266322   11.08898250032422
H        12.96651056153236   -2.89671986971433   10.87331393224839
H        12.23171560813373   -1.81918977365977   12.08495923452092
H        13.55337837668325   -1.22874419957397   11.06099897693598
C        10.03693806539115   -2.35526135827962   10.38941683499681
H        10.25402548504636   -3.40886993336760   10.21075244026769
H         9.14112462607352   -2.08104189016861    9.83261452566107
H         9.86759352059395   -2.19242427430228   11.45555922913230
C        10.93576409754686    0.28188965917916   10.50634124384229
H        11.74636209167047    1.00188668234837   10.41606540595623
H        10.65114001011348    0.18806490869885   11.55509018779112
H        10.08737546646044    0.64318188764268    9.92438726911597
H        11.27946853890345   -2.26760409958639    6.30657396900097

