70
CSD_code = VUVHUQ | q = 1 | S = 0 | Stoichiometry = C33H33IrNSe2(1+) | MND = 8
Ir        4.20828639553724    2.25235224958603   14.04393960764301
Se        5.06006197315528    0.94971571370221   10.54949232191248
Se        6.04036735833489    1.30013283354960   12.60342252232961
C         3.85110304619420    0.29390244309373   15.23235620231761
C         2.97289549205033    0.43564068766847   14.07138935730116
C         2.09938972946811    1.52915012143279   14.30968939237713
C         2.56781211284377    2.19054251764472   15.49601347255638
C         3.58657972741419    1.34150558681953   16.10680081775905
C         4.76469444562049   -0.86698825968748   15.44248648513515
H         4.18091363093506   -1.76207995445255   15.65974709826728
H         5.44305859190450   -0.69405898368206   16.27420225705780
H         5.35918132865310   -1.06744231673556   14.54833368264484
C         2.79886568136128   -0.62287481210756   13.03113535663831
H         2.10458972651337   -1.38222935563448   13.39372325943240
H         3.74516435002290   -1.11345730355847   12.80546804270727
H         2.39789603277519   -0.21120831621134   12.10698163357174
C         0.84897949689172    1.86844924254988   13.56807334281624
H        -0.00981561002132    1.57418139439433   14.17248030800390
H         0.79381291628922    1.33702126561396   12.62264919898606
H         0.77395038280380    2.93630299561575   13.37538314916800
C         1.84488966775270    3.29000746780601   16.20296857357145
H         1.08088335416977    2.86121132502339   16.85360779921287
H         1.35409010791256    3.95170826769696   15.49377765011301
H         2.51894430205848    3.87980520441385   16.82013701653403
C         4.12029793875569    1.53397548337568   17.48667558396557
H         3.41398569008792    1.11545204527821   18.20539003738465
H         4.24294267306748    2.58919523425537   17.72373047771293
H         5.07316401493318    1.02716618464349   17.62527775980292
C         3.85940035169827    3.65932610247172   12.61408369216491
C         3.04692121918519    3.49094179672274   11.50233376702820
H         2.53579462041473    2.55266565206226   11.33605980209590
C         2.87243039316660    4.51794053441204   10.58687491013551
H         2.23161545115719    4.36684108515417    9.73157334723127
C         3.51576470326961    5.73344950660228   10.76579458615660
H         3.37141965794232    6.52998027102399   10.05266159632928
C         4.34804695528932    5.91998979446853   11.85009403687798
H         4.85881632202431    6.86139275838701   11.97874647130873
C         4.53118418586678    4.88851538892282   12.77193869922134
C         5.42930685686116    4.94445479811925   13.90997953016703
C         6.26294351933088    6.01260712583565   14.24025493018738
H         6.24323772856485    6.90824620055665   13.64252599659233
C         7.10564058998994    5.91427530783053   15.32740756557749
H         7.75193002331223    6.73417071589284   15.59796667137081
C         7.11137463495645    4.73650528036204   16.06572259670947
H         7.75875714220659    4.61394050926729   16.91821317889221
C         6.26527514432477    3.71534420745142   15.68722581217605
H         6.25401401338144    2.78397842164231   16.23504680187730
N         5.43707595776296    3.80832092816161   14.64652243260162
C         6.36053333580426   -0.26862681261564    9.77825529302550
C         6.56226368372541   -0.20640446938420    8.40792240476025
H         6.01925049164370    0.51780476424754    7.81625586231561
C         7.45822305394189   -1.07689456460651    7.81261290029890
H         7.61664106940660   -1.03185618793761    6.74608101878070
C         8.15135175015358   -1.99632982824554    8.58209020184881
H         8.85304976793418   -2.67064326073353    8.11663206832121
C         7.94280787244095   -2.05219877729377    9.95033645667510
H         8.47836241704982   -2.77020580356574   10.55240963249785
C         7.04017423846314   -1.19384073149291   10.55152528568010
H         6.87019275168667   -1.24367633541443   11.62079921485740
C         7.21842344710407    2.80529946834931   12.28352772287308
C         6.99109386642511    3.71102732195342   11.26330182060067
H         6.16564991549436    3.56996474856694   10.57834981095321
C         7.83140592153541    4.80146919590119   11.12748114274282
H         7.65808301709279    5.50873538854059   10.33133278540931
C         8.88539822083659    4.98336526912681   12.00739264724047
H         9.53765430099494    5.83571917064853   11.89864213482489
C         9.11258966843261    4.06489883883901   13.01941779310435
H         9.94152563154400    4.19662361631422   13.69771220948234
C         8.28159148906105    2.96831322813187   13.15929017474796
H         8.45640006094851    2.24119041326895   13.94127258737462

