49
CSD_code = VUVKAZ | q = 1 | S = 0 | Stoichiometry = C17H28ClRuSe2(1+) | MND = 9
Ru        4.42016074915439   11.90353920554021   10.45990648626605
Se        6.60849511339799   12.83003104114469    9.97780159422444
Se        3.84526174158735   11.62363496673592    8.11782220007997
Cl        5.44422904824927    9.79546446272667   10.32167254261697
C         6.58205786970920   11.94153784963970    7.21625317414972
C         6.38430446398748   13.31146602069178    6.61575513315712
H         5.42366687872440   13.53115176653239    6.17118599162756
H         6.84285972116720   14.15093992022106    7.11964671028956
C         7.27466106304307   12.32385707273240    5.93276948521108
H         8.34039333127492   12.48773053303856    5.95962664183915
H         6.93193452647184   11.87044603826733    5.01610363077364
C         7.41543549084698   11.84144539666092    8.46783296396079
H         8.40177020326435   12.28900889788871    8.32037969588341
H         7.51963747981226   10.80758487593463    8.80730981908184
C         7.76652577836545   12.10263679332114   11.35402040344897
H         7.54031207134069   12.60145652774387   12.29482026325867
H         8.80132544482254   12.29711553479363   11.07571545971372
H         7.57937253750826   11.03238502988103   11.42842460556496
C         5.43222030538793   10.97063115287830    7.13795594079287
H         5.68392972272943   10.00358216682162    7.58064831790164
H         5.10152117522693   10.83565914245646    6.10495823862443
C         2.85416645632482    9.95477781813778    8.06061018571938
H         1.85781901697560   10.13039413874089    8.46282456755878
H         3.38867502982938    9.21707365591724    8.65751415057577
H         2.77783960378410    9.63219370102178    7.02325474871482
C         3.29663275697469   11.15245585217088   12.40419825024012
C         2.35842559495289   11.47919307581255   11.40638768268765
H         1.57129741472574   10.77256145247367   11.16376491781400
C         2.35835669621789   12.76058066913456   10.80104558395218
H         1.57445026900051   13.00085827982201   10.08846239238136
C         3.27567395396092   13.75890765788647   11.18947088363290
C         4.24852972556544   13.40330135674841   12.15154660547900
H         4.94938134631119   14.16014148822369   12.49740474988252
C         4.27461113015143   12.11980282605757   12.73920472771175
H         4.98172410802915   11.90285658894243   13.53340351347963
C         3.26430494815221    9.83630816301999   13.10778956909469
H         3.01991674239111    9.99032827157849   14.15921806710926
H         4.23945501897897    9.35070522133965   13.06406554703626
H         2.52500576278557    9.16990382887962   12.66991739417127
C         3.22126205650182   15.15276440149868   10.61272316481654
H         4.00423751001295   15.75019893162985   11.09319664197143
C         3.50091457839501   15.12535044684372    9.10736948201751
H         4.47531583333302   14.66997738472259    8.90716405678473
H         3.51028216360162   16.13791772113210    8.71466635110539
H         2.73634284884344   14.56039234868868    8.57522836520120
C         1.86778830279430   15.80525819416014   10.90751560070932
H         1.88118995291845   16.83966803420667   10.57623891460575
H         1.65761327680701   15.79064808141116   11.97465204475892
H         1.06151318558275   15.29367601415153   10.38775254230500

