103
CSD_code = VUVMIK | q = 0 | S = 0 | Stoichiometry = C41H56NNbO4 | MND = 5
Nb       -5.61634905950480    0.97787903162438   -0.96007729902662
N        -6.84801881647768    0.79771554110989   -3.03643970887479
O        -6.82516837027998   -0.05962776000529   -0.33266769431869
O        -6.15893017554318    2.71767894546416   -1.19824660114925
O        -4.35844518017735    0.18844223201830   -2.10893441544647
O        -4.52198286073249    1.17302365640514    0.49283936655726
C        -6.44146792077293    1.39757925749257   -4.14934953328093
H        -5.57548524758419    2.04508141672337   -4.06131020005134
C        -7.07002719295538    1.21860996874869   -5.37165970257519
H        -6.70386759660170    1.72658034425317   -6.25024296963871
C        -8.16882094353202    0.37608624829082   -5.43742747729091
H        -8.68023897853911    0.21117338605358   -6.37420364816258
C        -8.59257027640288   -0.24943403445278   -4.27558964372219
H        -9.44214546720469   -0.91370123081825   -4.28032744276978
C        -7.90326444299929   -0.00963433825034   -3.09689784628637
H        -8.18065042323569   -0.47153693765130   -2.15559579247240
C        -6.66258670479892    3.93889526499380   -1.11668366795327
C        -7.94793346092521    4.14703053468943   -0.57282903723209
C        -8.42810156918352    5.44254448330298   -0.47666177875412
H        -9.41053629217013    5.61684703541098   -0.06572250316120
C        -7.67288461760417    6.52134664388212   -0.90216783535047
H        -8.06424728634325    7.52402306435531   -0.81404818297545
C        -6.42394965718906    6.31197949609852   -1.45558209803648
H        -5.84930788135051    7.15711724650149   -1.80493360295885
C        -5.90190782618718    5.03416732711352   -1.57360434752722
C        -3.31114957336287   -0.61523664225523   -2.27677828479228
C        -3.50224520331479   -1.91796755344608   -2.77914170007454
C        -2.40939555141691   -2.76096156802612   -2.88801216465561
H        -2.54345821665581   -3.76826331153920   -3.25045394006251
C        -1.14025023603960   -2.33001218149442   -2.54517845551678
H        -0.29868705229175   -3.00060198307572   -2.63649462580627
C        -0.94894580190176   -1.03563573802542   -2.10091543624619
H         0.04836637234267   -0.70078993797449   -1.85898961855261
C        -2.01552552494353   -0.16283726149560   -1.95658087423865
C        -3.84480143626056    1.14708713976810    1.63049878396880
C        -3.25636050532442   -0.05290828298280    2.07750823864047
C        -2.52381956597309   -0.03313533733306    3.25330481753967
H        -2.06918623552849   -0.94229691156739    3.61440977734726
C        -2.36687040523222    1.13521929706464    3.97759411431662
H        -1.78880459115738    1.12971251958503    4.88980060490696
C        -2.96140096980439    2.30720680068311    3.54476715891475
H        -2.84537274643991    3.20587953949360    4.12999292746609
C        -3.70057888158102    2.33498259931518    2.37466809557373
C        -8.78421028605055    2.95067851730151   -0.18067310357318
H        -8.11038318266045    2.10027082221074    0.00861874977688
C        -9.61903781382335    3.18174380539572    1.07827573763283
H        -8.99893148349695    3.56175909440114    1.88620552393132
H       -10.06080385915105    2.24130190078720    1.39879895946103
H       -10.42597305601486    3.88789217772497    0.89441267300446
C        -9.69140883987221    2.57701337368639   -1.35995767894249
H       -10.38828473998320    3.38656207379783   -1.57291929988930
H       -10.25759484014180    1.67770159162767   -1.12900778702109
H        -9.09447649222337    2.39197095574564   -2.25248855834272
C        -4.56002602386155    4.79228580289288   -2.22983582899117
H        -4.31462588633354    3.72559621548885   -2.12513764184693
C        -4.64648467315743    5.11696223029283   -3.72475917338010
H        -5.46661910569369    4.57134115685937   -4.18971844171492
H        -3.71811035561649    4.84997879305321   -4.22726158242919
H        -4.82333001600508    6.18012985305366   -3.87248870708032
C        -3.43844886709412    5.59745498410141   -1.57332966712234
H        -3.61430584232263    6.66561288373286   -1.67609307237672
H        -2.48596042013957    5.36408022118435   -2.04615020820175
H        -3.36526979451557    5.36211454988120   -0.51452151176390
C        -4.90182503934048   -2.34205774441551   -3.16604122679349
H        -5.42758938245039   -1.44355089050648   -3.51979670080616
C        -5.64837866504970   -2.87361209745425   -1.93692141313138
H        -6.62568594663251   -3.25468485015589   -2.22794258369258
H        -5.79213360901842   -2.07692380457214   -1.20387592646735
H        -5.08272094314450   -3.68275542230228   -1.47823611712443
C        -4.92563886399426   -3.37409477025621   -4.29324731575075
H        -4.58351903162877   -4.34412603289948   -3.94127616715611
H        -4.29319635524846   -3.05939516661493   -5.12088813758316
H        -5.94313691216037   -3.49228625293584   -4.66172845178306
C        -1.80543957333134    1.26783622707454   -1.50963543570916
H        -2.77676371812826    1.68212303621138   -1.20578563532422
C        -1.28466965602344    2.09728223352378   -2.68850214127338
H        -0.32669107666929    1.70901413813531   -3.02945076294870
H        -1.15155319379423    3.13654373326352   -2.39307563022655
H        -1.98383422292387    2.05765920969601   -3.52268222740240
C        -0.86298229671691    1.38436495987873   -0.31162483787482
H        -1.18488269353329    0.72906624639745    0.49466877193948
H        -0.86393937188698    2.40665426471279    0.06272301208248
H         0.15726078169141    1.12718385914100   -0.58707326854074
C        -3.51055567095745   -1.31474956922188    1.28717706375517
H        -3.59170377421034   -1.04263839196156    0.22505487493555
C        -4.86038823171965   -1.89812213403915    1.72789586340058
H        -4.87109025658555   -2.04896245291616    2.80632817239059
H        -5.03341385781994   -2.85467927732335    1.23976166963186
H        -5.67001312096329   -1.21635399572066    1.45573603265862
C        -2.39990271119157   -2.35502969537245    1.41477769872897
H        -1.42682141698599   -1.90796642188854    1.22284004434034
H        -2.55759919578686   -3.14588655026830    0.68467885916030
H        -2.39331715753578   -2.80425483346470    2.40530886085914
C        -4.43514050987073    3.55804045412214    1.87568188422414
H        -4.37991681179746    3.55379660733794    0.77690499049765
C        -5.91319841545504    3.43341101558674    2.26763517918310
H        -6.33663368574574    2.51220926563351    1.85789441979917
H        -6.47705791697407    4.28123541741101    1.88134989606152
H        -6.01077261708176    3.40806848216980    3.35195649357032
C        -3.86090673560747    4.87933609304146    2.37882386169422
H        -4.35169896380532    5.70842590440814    1.87168310704182
H        -2.79109161841340    4.93707040973168    2.18700091566098
H        -4.03019763316833    4.99494977613962    3.44679716270206

