94
CSD_code = VUVTAI | q = 0 | S = 0 | Stoichiometry = C47H39F4NP2Ru | MND = 8
Ru        5.24663480544602    2.99005839074590   11.43625226061492
P         4.19770250230815    4.92296126566004   10.93486915730978
C         4.38650242405636    5.67055912295317    9.27852347869494
C         3.63816335381732    6.77737340311774    8.88680533595624
H         2.88409795851301    7.17649975963579    9.55210733686329
C         3.85877092670956    7.35411138392673    7.65027087037796
H         3.27506408672758    8.21027433101474    7.34478061906878
C         4.82806181837176    6.83927260399914    6.80182770745224
H         4.99485980730484    7.29452145412464    5.83671056176198
C         5.58352110491971    5.74717576896721    7.19326921824478
H         6.34691791438569    5.35102400141036    6.53901514662156
C         5.36236171077399    5.16739666573459    8.42987303072964
H         5.95548048331974    4.32513544288464    8.76201015662001
C         2.39643998748822    4.99106062425386   11.17490335663436
C         1.55836249707711    4.70249971731864   10.09920357183764
H         1.98377608376239    4.56695412712101    9.11322004199322
C         0.19187954775502    4.60529251171241   10.28378872061326
H        -0.45020897827477    4.38864115963092    9.44182819380644
C        -0.35308506048624    4.78104321110959   11.54574871825412
H        -1.42059536447978    4.70293591331627   11.68834481417411
C         0.47487411936398    5.05009746162399   12.62330278353236
H         0.05848110762829    5.17998087696657   13.61095731833618
C         1.84216657985456    5.14829518316134   12.44247786026258
H         2.47865954068812    5.33244733152298   13.29464242548766
C         4.85592127010131    6.33269899026153   11.97675899217905
H         4.99971275484765    7.18815058474968   11.30903541552417
H         4.09232425356230    6.60893678430713   12.70769137814406
C         6.16011598840911    5.95503361633173   12.68364239504521
H         5.96053469857434    5.71817556925441   13.73544666721475
H         6.89819742020546    6.76265469396822   12.65138482206588
P         6.91154388017787    4.38973976341694   12.01802244900074
C         8.08196212250876    4.95386885152628   10.74160597351887
C         7.87635427809913    6.10436908373302    9.98768386752603
H         7.04734779999247    6.75886783035584   10.21418572014514
C         8.72976408781858    6.41279897766143    8.94359114373172
H         8.56500784243078    7.31038438415444    8.36522932263799
C         9.78786864361333    5.57379090461480    8.63545470399901
H        10.45104162409928    5.81646988189127    7.81844129484647
C         9.99499496930414    4.42078035323575    9.37691357666142
H        10.81996895683168    3.76482546161819    9.13808354327504
C         9.14296846148567    4.10933529534324   10.41922048661272
H         9.29929011819639    3.21620263367513   11.01119583461979
C         8.04148391393886    3.98928065107769   13.38929874396072
C         7.66661603201953    2.97159959527323   14.25861094864050
H         6.72964557781323    2.45581731020979   14.08115223557700
C         8.47083513231547    2.64393584934352   15.33514145476307
H         8.17600630666109    1.85411804232380   16.01042703252060
C         9.65462263538434    3.33209902604526   15.54549759903250
H        10.28683170329976    3.07599421798610   16.38277940190498
C        10.02912203389551    4.35184356907441   14.68420275472272
H        10.95024226407327    4.89018669979938   14.85398360983055
C         9.22713332838062    4.68384149966868   13.60787557962106
H         9.51920166648778    5.47693275259536   12.93291951718900
C         4.47824211144202    3.33755845586065   13.21716298505876
C         3.87122497474719    3.32458582799506   14.28390424353397
C         3.15614863415086    3.36244953741285   15.41436849612455
C         2.46416169018023    3.39587529051723   16.42087152145367
C         1.65189188328570    3.46673989778942   17.54248365310510
C         0.64040386071067    4.44343287619277   17.64816936778699
F         0.47252368717275    5.30917242323995   16.63172120747739
C        -0.17535358466072    4.52349374731744   18.75515497878306
F        -1.12750162802542    5.46451662796742   18.81632175065842
C        -0.02744104953135    3.62848532823026   19.82584806532082
C        -0.86024459995076    3.70887097150190   20.95984222139376
N        -1.53850959727910    3.77351140932471   21.88153778986278
C         0.97386522640451    2.64980139595359   19.73157610617111
F         1.13523104625620    1.78274884732813   20.73995285046583
C         1.78797763549057    2.57128895496977   18.62225747255809
F         2.73798852758813    1.62297416192385   18.55951962415925
C         4.01780378449594    1.23205777348444   10.97001318605399
C         4.54821201640733    1.71090172800785    9.72330688166352
C         5.96694279787000    1.63684814979784    9.78264766997698
C         6.32312699997028    1.06722554780671   11.05942987857599
C         5.12264250377611    0.78872596552981   11.77231658590624
C         2.57316004647933    0.93916189301319   11.25309113155882
H         1.92418905160269    1.71329608779714   10.84398355683883
H         2.39556903578530    0.88558970167469   12.32545930826151
H         2.29102699648203   -0.01811571557886   10.80797368794225
C         3.72855541212750    1.99302933117620    8.49980020694290
H         4.14468623117388    2.80336758014013    7.90214029877104
H         2.70758305768596    2.25466196010101    8.77033413949577
H         3.69426777242773    1.09489999544261    7.87808162735840
C         6.91039043848808    1.76086290140232    8.61907558789878
H         7.27180919294856    0.76875767982215    8.33799826022959
H         7.77820344116844    2.37847039954100    8.85756996804856
H         6.40936719415203    2.19236152668600    7.75475196935172
C         7.68789657001360    0.55667557305573   11.42189275034431
H         7.94145515034089    0.77448709992972   12.45934969486664
H         8.44945770315161    0.99785790012568   10.78237502468034
H         7.71636414116393   -0.52714045721839   11.28629737914559
C         5.01163501705019   -0.01177573445117   13.03575353902570
H         4.66976776949132   -1.02101744182044   12.79634663788624
H         4.29661201461382    0.43245219802699   13.72750458624739
H         5.97471812156697   -0.08659198246514   13.53650495926971

