99
CSD_code = VUVTIQ | q = 0 | S = 0 | Stoichiometry = C50H39F7P2Ru | MND = 8
Ru        9.40577430691998    9.97938589232575   14.43682507629275
P        10.23312563689566    7.88749305226366   14.26537837720291
C        11.83016293392400    7.44079914917427   15.03066675396015
C        12.63144039313120    8.46655295234859   15.51395179958771
H        12.25960768461068    9.48291846153040   15.45044823632250
C        13.87443246293459    8.19099610961033   16.05521242516759
H        14.49487247953953    8.99327119578685   16.42941780770688
C        14.31973407483316    6.88095587903453   16.11689378268799
H        15.28773480659255    6.65924431924864   16.54143592659747
C        13.52410705073851    5.85238740555494   15.63483691633033
H        13.87577489348221    4.83218890592203   15.68392238270668
C        12.28284259212790    6.12675299198464   15.09095922701992
H        11.65773488471910    5.32687686589058   14.71780487996860
C         9.20569903529682    6.45866461853040   14.70882173032731
C         8.38558328822986    5.79291390590837   13.80453547902419
H         8.40115930200992    6.05188156124354   12.75755299263260
C         7.53810941201638    4.79220834299650   14.24652938115773
H         6.90519492011391    4.28134162562553   13.53689617557385
C         7.49674783713300    4.45291997758908   15.58846834576296
H         6.83058176810204    3.67447731493983   15.92968713025662
C         8.31059092045885    5.11355926370276   16.49580202324117
H         8.28098111812056    4.84903986106810   17.54330917304404
C         9.15625620776521    6.11429286724070   16.05860301261172
H         9.80079279809687    6.63431132296125   16.75704533756343
C        10.66399052707766    7.61851342837794   12.48307096057176
H        11.19025492201779    6.66741389270721   12.35205962436116
H         9.72326030640318    7.60453376463326   11.92240385879711
C        11.50947316135978    8.80448382569624   12.03379951255229
H        11.63527307231364    8.81434712478628   10.94742625654030
H        12.49642796218055    8.74915286196846   12.50261956987003
P        10.67008834194884   10.37323993593970   12.59953275551227
C        12.04738075600363   11.57201258767656   12.67112683772284
C        13.27100419228648   11.25903246761055   13.25670484677839
H        13.46727059784795   10.25575191085124   13.60643479636673
C        14.24925813334251   12.22697764343786   13.39792593173881
H        15.19791238628370   11.96806693547878   13.84566965885993
C        14.01477466987439   13.52444107347595   12.97361768715298
H        14.77876155811334   14.27887841208606   13.08788831757037
C        12.79345615110512   13.85054282821944   12.40671324199390
H        12.60145967564908   14.86203805845539   12.07925039692499
C        11.81551517727500   12.88415744931560   12.26075765397494
H        10.86428738960885   13.14073133956172   11.81486831956969
C         9.87133516743981   10.92754954504831   11.05130396661672
C         8.51571387186955   11.22705345528107   11.05728524807854
H         7.95815132191915   11.10537366357192   11.97798743421937
C         7.89042074603218   11.65583771998467    9.89935617933412
H         6.83404276245999   11.88019521001732    9.90848940953997
C         8.62056254003246   11.79444289971403    8.73135816371567
H         8.13538132442014   12.12759655027780    7.82583666022554
C         9.97831496620471   11.51105354987393    8.72302415335711
H        10.54871230418729   11.62857071831860    7.81297485007012
C        10.60499508978554   11.08208963776207    9.87715180791773
H        11.66859853394655   10.88142410069578    9.87533023366964
C         8.02017282301390    9.08442817644253   13.35471988645298
C         7.02941256550401    8.52536513127952   12.89400640669627
C         5.97685259844280    7.88264831391428   12.37373810155951
C         5.01988488029110    7.27449819903129   11.91973757210027
C         2.70664001879440    7.12048231852149   11.15183129728423
F         2.54826574509783    8.42283937492846   11.44080372193742
C         3.95634120842940    6.55128878871484   11.39765524497687
C         4.10188209036172    5.17376535189082   11.08915094654335
F         5.28825936992136    4.59124407317572   11.32464448476531
C         3.07421874038382    4.43429975152322   10.57247870896396
F         3.27384614683958    3.13562902390637   10.30650093422840
C         1.80571698069109    5.01460745530870   10.31671285602345
C         0.72589725604367    4.28512713559242    9.78037013473662
F         0.87187203274074    2.98899894086538    9.48905538364632
C        -0.49253984451546    4.88162019297982    9.54443256220075
F        -1.51100840103927    4.17974033476980    9.03370538779948
C        -0.67476500423510    6.24412479338959    9.84124112173360
F        -1.86419720291047    6.80800129333223    9.60564451528162
C         0.35775961123638    6.98160324348008   10.36575892069917
F         0.15054156506753    8.27485255971691   10.63629779596669
C         1.62677317168260    6.39931407198210   10.62069972299468
C         8.15054140534511   10.23436630680469   16.22249041626153
C         9.51511958422735   10.34390357562901   16.66387885287443
C        10.11197639229931   11.44573402608897   15.99614453822965
C         9.09815507083519   12.06183155467251   15.17040320251554
C         7.88574968077362   11.33746030900050   15.34214604583535
C         7.10141714702035    9.34937432753948   16.82971452074899
H         7.50041792809092    8.36276858326506   17.06343519045171
H         6.26680608082247    9.21723453439152   16.14390731324361
H         6.72286983360960    9.79721289709661   17.75184398921596
C        10.11052026786862    9.58716204401090   17.81370998046537
H        10.07422127798766   10.21367364403670   18.70834571960927
H        11.14991372516092    9.31268139072487   17.63670813760535
H         9.54548308612935    8.67971300501370   18.01554321060026
C        11.41902690861444   12.09259739332185   16.35676986723399
H        11.23015397481107   12.96324512060493   16.98976465432429
H        11.96257398076519   12.43280339911841   15.47478571466310
H        12.05722104203869   11.40722779964911   16.91152625216303
C         9.22659989150288   13.41319930874109   14.53089428831520
H         8.86065925005897   14.17664806503269   15.22191695779744
H         8.64317794392029   13.47930613956059   13.61329190791357
H        10.26528734753535   13.63771143274182   14.29516205650278
C         6.52825824527753   11.75106002935656   14.85771131448808
H         5.95705284704912   10.89637147037112   14.49712168726702
H         6.60385479099351   12.47826765595829   14.05185707525601
H         5.97349752868906   12.20793102925903   15.68016869355400

