99
CSD_code = VUVWUG | q = 0 | S = 0 | Stoichiometry = C49H37ClN4O5P2Ru | MND = 6
Ru        7.11455993295247   15.73393104450186    5.85047637580209
Cl        7.85036559412690   15.98061836975199    3.70036527295210
P         4.88186727811457   15.59587362345708    5.12075270423788
P         9.35247863602888   15.74732428075754    6.54983585354037
O         7.00802744924010   13.66683498000614    6.01376122367290
O         3.76661743519182   18.32832306724016    8.80441685501531
O         4.07878537001647   20.45402936197688    8.83771358267200
O         6.81014602034363   22.33155479510086    5.35276786331379
O         8.16170919650264   21.06202607431763    4.26302262536203
N         5.85820170062770   16.89756231695853    8.14346218380064
N         6.41392958919479   15.77852926793037    7.73964581148698
N         4.36902704579023   19.33151890284356    8.47019849695783
N         7.29755175661654   21.24472635483576    5.10248952552993
C         4.00719494185514   17.17566448232840    4.95291584436456
C         2.82623328509580   17.51739217409127    5.59878028256229
H         2.30904354564987   16.79995505054809    6.21713168083420
C         2.30680611416536   18.79231401816839    5.44315000733296
H         1.39728849456544   19.06120525564104    5.95893218561245
C         2.94964479412985   19.71956248011627    4.64117615726411
H         2.54751110749382   20.71593331987008    4.53867396625279
C         4.10770874050576   19.36724027705803    3.96364020576783
H         4.59928294350373   20.08287116839302    3.32168406476942
C         4.63654982005841   18.10180045563958    4.11956992604714
H         5.54274920060841   17.81378276854442    3.59945483558669
C         3.92618246511691   14.52168835781022    6.23848197820620
C         3.74032028423717   13.17988226233269    5.91229586213721
H         4.05647332477165   12.81065903877444    4.94663064696637
C         3.15630206521280   12.31496381856256    6.81943441302050
H         3.02361217771755   11.27551423172540    6.55740921349871
C         2.74830965249975   12.77761146430365    8.05905081249906
H         2.29523853625790   12.09981281249078    8.76702846180395
C         2.92728821414711   14.11082272496928    8.38843505376244
H         2.61250287590731   14.48100247177729    9.35249611066507
C         3.52230183501470   14.98171272227685    7.49337160426462
H         3.67810358422398   16.01076513535345    7.78937309227461
C         4.65516393915603   14.83057204203442    3.49017236666578
C         5.53234255737539   13.82599751198197    3.08888841883401
H         6.34002580770129   13.52634035602023    3.74528777984041
C         5.37233982086326   13.21750017782189    1.85803881595423
H         6.05749976710322   12.44277168611536    1.54637069780040
C         4.33790887757771   13.60652419850306    1.02245783936148
H         4.21703241862551   13.13554249101527    0.05824412280981
C         3.46000077345096   14.60104655461211    1.42146195621414
H         2.65299629170881   14.90331057225853    0.77053692668032
C         3.61361310685023   15.21411910998987    2.65183386255562
H         2.93090457739049   15.99311418267743    2.96072746140797
C        10.46539261529478   14.67612818286414    5.59060834488020
C         9.95709131486043   13.66283586976845    4.78665237251354
H         8.88708599633779   13.51857860935965    4.71236090395102
C        10.81756907122472   12.84434952985194    4.07649535649607
H        10.41968805200661   12.06177978989443    3.44731315474479
C        12.18630153357212   13.03217647727550    4.16688310321783
H        12.85690380846189   12.39661867092996    3.60783553093883
C        12.69746108274862   14.03800631798120    4.97255402015226
H        13.76514929587274   14.18421692111898    5.04357550661106
C        11.84355148390880   14.85919731631023    5.68368217364288
H        12.23859450531025   15.64683121153003    6.31051323435270
C         9.54562527096329   15.13506033877946    8.24721103868000
C        10.09855268846268   13.88936837243696    8.52205985205403
H        10.50329853362621   13.28895633195583    7.71936039606359
C        10.12568088841589   13.41623501038197    9.82213944804013
H        10.55350671228042   12.44656038492935   10.02880624283062
C         9.60265875143900   14.17820268649142   10.85292846384402
H         9.62685113483820   13.80517914934207   11.86582885172786
C         9.04139932401840   15.41688454337782   10.58415858758324
H         8.62560035305756   16.01024810248112   11.38491465653496
C         9.00043745895475   15.88983205506926    9.28640333816590
H         8.53992247784938   16.84628516805613    9.06869030998728
C        10.24257364960536   17.33205838028988    6.48676592859672
C        10.77916076891820   17.98292976018595    7.59079483716858
H        10.72342625131225   17.53627177558713    8.57287082401102
C        11.40355345879802   19.20824747086813    7.42814792352260
H        11.81795954842723   19.71177534368224    8.28933046497276
C        11.49524208613610   19.78835212925463    6.17440582177790
H        11.96982053353751   20.75083294130793    6.05842939102508
C        10.98101774313185   19.13158951154291    5.06740203114699
H        11.04972151361922   19.58170990355962    4.08929745746247
C        10.36103217707704   17.90671733979486    5.22100855807185
H         9.96058671520803   17.38209342200955    4.36242455196585
C         7.00013741055029   12.92727078086387    7.05186679289383
C         7.13598053740064   11.52374869679795    6.90780257944643
H         7.28695982975042   11.14213260661699    5.90863445488979
C         7.14961540499162   10.69244039571361    7.99271709830913
H         7.30653266838344    9.63292575885327    7.85426602341881
C         6.95901002670971   11.20281724760268    9.28331898184031
H         6.96671210158864   10.53601837135491   10.13121029098052
C         6.74876971726535   12.54324608530301    9.45607712751572
H         6.58387792918670   12.94690531317193   10.44421687457940
C         6.77054541300213   13.44548322926697    8.37419678963709
C         6.38740193915677   14.78381825724429    8.60086915016250
H         5.93138285230358   15.01638853279884    9.56070679970633
C         6.01898044204135   17.91690939622872    7.30425813119745
C         5.44800876934039   19.19088626965316    7.55025508276191
C         5.87741420902041   20.29065777067802    6.83075685949067
H         5.45225600665624   21.26488356742578    7.02099072129477
C         6.84048135759176   20.11798660706674    5.84698948002279
C         7.32224093700188   18.84052637943253    5.51083941382576
H         7.99659955153045   18.76712130377030    4.66889077926901
C         6.88663316004587   17.72607659893789    6.17973887108863

