139
CSD_code = VUVWIT | q = 0 | S = 0 | Stoichiometry = C66H64N4O4Ti | MND = 6
Ti        0.52927871510705    4.90835545944769   16.29492134903310
O         2.84625863342281    2.26987570377399   14.25605156590560
O         0.98523326533544    6.21596859341466   14.76265610402623
O        -1.65878469274168    7.53344549288713   14.11745564254000
O         0.21362449833229    3.63458112134119   14.69977888716709
N         2.52090863653287    5.06113567913833   15.80315828532914
N        -1.41423618337861    4.75104609313483   15.63678718371859
N         0.38983374577593    6.29211011534750   17.52390657992436
N         0.56577893485865    3.50659029134770   17.51139920771694
C         4.67510310636157    3.98823670243547   15.26735834906618
C         3.74844792234744    4.52395125418145   16.15158999225569
C         4.01042928415134    4.46042599411084   17.54589630999336
H         3.25149684336565    4.86156079603039   18.20427637647848
C         5.15887632561150    3.92181339697911   18.03523394557357
H         5.34603402865063    3.89427609222985   19.09979867950133
C         6.12268627666797    3.37290791621340   17.16190258332215
C         5.86472578591903    3.38742980948454   15.76620582215160
C         6.81030679383755    2.77315299322161   14.91431904174173
H         6.62127159561196    2.74648605560113   13.85199366571666
C         7.95330540913295    2.21260213798481   15.41283916516286
H         8.66353651168955    1.74940301205517   14.74309267353226
C         8.21590227873408    2.22836543443024   16.78978267428774
H         9.12662595020255    1.78579183545798   17.16609344249154
C         7.31182209722312    2.79347851619170   17.64506551362653
H         7.49256370759631    2.80093809245877   18.71104748876807
C         4.42705471302732    3.93215559088563   13.80856249962582
C         3.48852919146928    3.03068058845860   13.32602949996253
C         3.29228661491671    2.90029237515198   11.93766267420171
H         2.55496114178218    2.20997077967794   11.55783830486464
C         4.04110201503365    3.63181689011298   11.05851810850348
H         3.89131785231365    3.51193950527001    9.99460950511267
C         5.02243204862854    4.53329235887583   11.51038772262796
C         5.21205721881451    4.69018657933146   12.90852029771504
C         6.21518203112326    5.57887516061082   13.35549255346757
H         6.36373996671549    5.70391537775523   14.41709459428485
C         6.99228589946220    6.26240363074814   12.46577936321261
H         7.76186698709876    6.93142668929841   12.82149731604109
C         6.80064512808501    6.10808301537740   11.08379003340567
H         7.42629866556725    6.65706329352461   10.39460907373743
C         5.83181456157023    5.26621863359794   10.61819575558965
H         5.67481781171492    5.13996230962273    9.55565899585282
C         2.21917177252122    5.98191238548189   14.91780253859192
C         3.19450553440481    6.84945910577547   14.18869105590977
C         4.08665111555334    7.65837088386310   14.89499578198803
C         4.91049771737226    8.52652256827258   14.19035033008318
H         5.60410662838654    9.14886083607928   14.73878119002007
C         4.85773530368462    8.62043189499591   12.80960677314348
C         3.93964508760082    7.83396650191385   12.12835831273222
H         3.87540559002474    7.90697823910367   11.05181156781105
C         3.10143455153226    6.95752286411478   12.79678675316882
C         4.14999918535006    7.64219748323897   16.39387315254886
H         4.88868754944779    6.91664339958216   16.73742679566730
H         3.18454324315542    7.36973836034127   16.82105134986385
H         4.44236747382894    8.62225280661318   16.76743759624821
C         5.74141823807593    9.57113353276625   12.06126372469332
H         6.14975196109660    9.09107445836858   11.17454567312980
H         6.56127746212899    9.91545206498640   12.68646458055342
H         5.16879589871872   10.44094236250671   11.73804167756699
C         2.09555799900065    6.15777321171286   12.02702213304946
H         1.15372334747040    6.70381570835616   11.96711590569693
H         1.89419597560963    5.20842182359467   12.51661392263104
H         2.44509308639318    5.97208664739690   11.01371579457313
C         2.00959093430601    1.22481624326859   13.81808799879005
H         1.08050284380004    1.61038796368885   13.38942946480813
H         1.76879458357145    0.64745416502045   14.70927843810261
H         2.52104578502523    0.57624181605549   13.09869204794203
C        -3.54541189693002    5.78554220723790   14.95691821220132
C        -2.67534817462143    5.25753062548953   15.90114214962957
C        -3.04072533014450    5.29513617507807   17.27276996157075
H        -2.32284876135033    4.90212894697654   17.98026700270612
C        -4.23514704409147    5.79996779848060   17.68156085039761
H        -4.50178374821856    5.80775196574367   18.72936947509644
C        -5.14422022352732    6.33916642084654   16.74566649515554
C        -4.78256983240443    6.35237715800826   15.37311666603887
C        -5.67571257849184    6.95944630641185   14.46157171141513
H        -5.40796686660722    7.00861008742020   13.41714833025112
C        -6.86619882162262    7.48513799074096   14.88056407766067
H        -7.53504007782804    7.94294995046874   14.16601352705363
C        -7.23112444469615    7.44037558461067   16.23334465088418
H        -8.17818894765298    7.85516549166290   16.54623722181253
C        -6.38002685940003    6.88298651849701   17.14610680941707
H        -6.63981056505506    6.85432993344862   18.19525653852209
C        -3.18799240834154    5.86879738185032   13.52260457796331
C        -2.22403410496318    6.78630299034954   13.12817125079077
C        -1.92549966535990    6.94409786318083   11.76100996630487
H        -1.16788275571126    7.64678434797272   11.45012101288147
C        -2.59902831912151    6.22270491829165   10.81511839234597
H        -2.37151597825799    6.36406123033010    9.76778032096590
C        -3.60022504522473    5.30224648902741   11.17597361888928
C        -3.89228954870154    5.11735295788464   12.55287477809186
C        -4.91191759019776    4.20606406436569   12.90749169670854
H        -5.13679532814532    4.05795188404993   13.95254144226625
C        -5.60994413558371    3.52875239981783   11.95004296888283
H        -6.39302882436360    2.84189039767663   12.23547780350606
C        -5.31851824945635    3.71252308282833   10.58920421963424
H        -5.88298834882798    3.16895406078881    9.84498649687055
C        -4.33014401536716    4.57596130337404   10.21266000584867
H        -4.09611240826230    4.72426095594419    9.16730740480700
C        -1.03214790443472    3.84715117246528   14.76537187535748
C        -1.93598103688518    2.97355101879968   13.95567840718511
C        -1.73993831999783    2.88621714016821   12.57282084396299
C        -2.51027893239371    2.00395563707131   11.83452492104351
H        -2.36671539583139    1.94617771554686   10.76472243368982
C        -3.45985856888777    1.19090846454986   12.43755234411611
C        -3.61494376003757    1.26539730883724   13.81144508124557
H        -4.33394640676993    0.62286804993292   14.30069719649246
C        -2.86116218374975    2.13895648443621   14.58501782812226
C        -0.69498528564245    3.71350222418411   11.88904760351406
H         0.26046374241092    3.18846932249531   11.89872959893815
H        -0.55264309308740    4.66247719384268   12.39953472874375
H        -0.96903630260216    3.90085573496261   10.85309134851827
C        -4.27003196145784    0.23854591526748   11.61212848575738
H        -4.71827426735709    0.75919177160059   10.76794723021303
H        -5.05918093474934   -0.21757960447573   12.20449695425553
H        -3.63375851128928   -0.55340464758177   11.21653245895662
C        -3.03287873130154    2.13218323107533   16.07546494518054
H        -2.10722107645495    2.41920445072582   16.57518332069995
H        -3.32927841787231    1.14066984891214   16.41405702304396
H        -3.81089448840200    2.83636390044687   16.37372339253147
C        -0.36525846197118    7.47685148854783   17.19196742885667
H        -1.12985806535373    7.68695113858095   17.96187019448532
H        -0.86584048310238    7.34237750534977   16.23428455311106
H         0.29232498982445    8.36444183609422   17.13521406979870
C         0.99303826022365    6.46017699321891   18.82424082054812
H         1.72546351061309    7.28837444196994   18.82410987421298
H         1.49845647956051    5.54583789818027   19.13545962564051
H         0.23154156120041    6.71224151566658   19.58430514726971
C        -0.11245589288025    3.33871187457805   18.77451649925522
H        -0.84864701717658    2.51522309867719   18.72900420403196
H        -0.62954694104947    4.25520464944412   19.05896881240873
H         0.60232470109897    3.07942199771095   19.57635945079922
C         1.32920938739710    2.31666853070600   17.21914070429516
H         2.04402378915929    2.09547330533416   18.03253798613324
H         1.88803608434588    2.45145982238700   16.29436651930324
H         0.66863732037384    1.43529497069556   17.11770278220877
C        -0.80171939037731    8.59330032916884   13.76200460670714
H         0.16084800087628    8.22288094981386   13.39889012455393
H        -0.63458389938548    9.15679938768027   14.67850250070040
H        -1.26358138375728    9.25006774972859   13.01696505101138

