127
CSD_code = VUVWOZ | q = 0 | S = 0 | Stoichiometry = C54H64N4O4Ti | MND = 6
Ti        1.30478911907980   14.31069682143506   20.16336281234479
O         4.12141278890276   16.46689747364032   22.19936135408231
O         0.02357531266508   15.88971400463600   20.48582152741808
O        -1.37820321620844   16.28207919291627   17.81344334869054
O         2.60643023767683   15.83647536504076   19.69568835186503
N         1.20407075395830   15.01109272320697   22.10075673261685
N         1.44644586676196   14.79825343983043   18.16316208568998
N        -0.10097854643734   13.09760059853527   20.16634502244070
N         2.67820928419542   13.06631941023651   20.29014849241179
C         2.40293659300618   15.73670953123427   24.14461798287977
C         1.76904039751136   14.76823198459610   23.34397918568935
C         1.78243646612949   13.43265200731902   23.76467656824982
H         1.31065068215534   12.69909521016634   23.12539818122553
C         2.38625433932138   13.06097664688871   24.94609150060315
H         2.37751669911640   12.02629472353843   25.25797014085397
C         3.01994256506987   14.01481791475383   25.72155043480620
H         3.51587458248635   13.72747626550298   26.63749146336181
C         3.04763824220631   15.34381311075624   25.32161347010152
C         3.79963476183279   16.32624731070150   26.17350578571951
H         3.20674801067564   16.60359183302140   27.04516521225337
H         4.04064509406531   17.23024833727479   25.62164724141385
H         4.72327660666620   15.87534204841281   26.53185277371761
C         2.48347477106403   17.15822267624708   23.72666630980460
C         3.39234919524334   17.49856555978659   22.70844093022583
C         3.54831616102425   18.82868219389821   22.34016906733222
H         4.24027236401306   19.11203341706976   21.56261467160262
C         2.81893219457112   19.81298400155764   22.98815092582617
H         2.95073537536378   20.84524173451313   22.69757073347773
C         1.94508100609699   19.48351115985568   24.00213783848102
H         1.39207814515217   20.25621876728093   24.51556240688310
C         1.77273223949285   18.15663308459904   24.38448187214911
C         0.86428538743066   17.84124846829740   25.53419821277400
H         1.34881277485883   18.11282406057729   26.47231126230192
H         0.61953522958496   16.78364820869898   25.56538457685498
H        -0.05640086984935   18.41412653930496   25.45673196336763
C         0.28076114401522   15.86158867392532   21.72566186659603
C        -0.57662983482577   16.69645709083845   22.62383057746263
C        -1.40214004199773   16.09304963076939   23.57565658739058
C        -2.27518258139633   16.88551173222265   24.30778135258128
H        -2.91319978555514   16.42102597628357   25.04695147578231
C        -2.35572526158800   18.25617187787404   24.10854544704562
C        -1.55088065823082   18.83143088520793   23.13629318942507
H        -1.61249871818721   19.89569988159358   22.95529083842404
C        -0.67142673631895   18.06993024698275   22.38149039824945
C        -1.39139928603313   14.60964206429990   23.79580637478540
H        -1.14638298239132   14.08461155350646   22.87221832495470
H        -2.36367719885189   14.27415997910531   24.15268369871969
H        -0.64425557452868   14.33946829624901   24.54354592705814
C        -3.31492926415116   19.08388336015836   24.91062784339864
H        -4.33342641210308   18.92786791315300   24.55441732054612
H        -3.08262531022110   20.14257036409786   24.82451767398652
H        -3.28319688232455   18.79994729458580   25.96096277238332
C         0.14283164912937   18.71455982307674   21.30337663167733
H        -0.36022396324604   18.60425321074904   20.34265757396342
H         1.11662053565576   18.23924245907774   21.21660471023568
H         0.27812855808119   19.77570392236803   21.50017814858974
C         5.14737948015417   16.75905369379835   21.28037632205110
H         4.74043779495836   17.07199356182890   20.31496358627022
H         5.69683795951882   15.82886371087837   21.14508575769531
H         5.82700162686605   17.52450067561131   21.67095187780017
C         0.34902320118979   15.29245055916451   15.99895074220779
C         0.92057104420976   14.41460940672333   16.93851693162918
C         0.88036514630787   13.03767621258328   16.68803762170299
H         1.30264608966834   12.37855430100470   17.43412585863112
C         0.31073579266913   12.53798580643176   15.53716882721075
H         0.29740695690900   11.47258355696880   15.35659018361205
C        -0.26145799547618   13.40427712557594   14.62330882774105
H        -0.73109382945793   13.01787047306795   13.73021895399226
C        -0.26285708789662   14.77320189652842   14.85378846807077
C        -0.95229076866446   15.66117825663941   13.85764595285288
H        -0.31470010556519   15.82259061242953   12.98840264603861
H        -1.19579007668452   16.62850524779913   14.28772710782207
H        -1.86952974676629   15.18816264689793   13.51164209199455
C         0.29471786289999   16.75500031575924   16.24133827079631
C        -0.62250343017820   17.23198968493878   17.19548805195921
C        -0.75596585839817   18.59925548497493   17.40012957984231
H        -1.45098681169759   18.98652917296708   18.12853214330909
C         0.00333293479559   19.48501908121899   16.65194681481834
H        -0.11224955212454   20.54694786186145   16.81396331468371
C         0.88947146038714   19.01992088770562   15.70395774183539
H         1.46921359338657   19.71493680924774   15.11458446177656
C         1.04204885922954   17.65371128318932   15.48741966879935
C         1.97621500683094   17.18674042773568   14.41221786873364
H         1.53691595764307   17.37526616201995   13.43246933762766
H         2.18111212555210   16.12397680376185   14.50170039730675
H         2.91534553530175   17.73195443742916   14.46644161105550
C         2.38439775807741   15.66283674863853   18.46090973440585
C         3.29512537035107   16.35510726479237   17.49626933217647
C         3.42669926164802   17.74486360433340   17.56816142398033
C         4.35627375637536   18.37981579914016   16.75800057689377
H         4.44685944847915   19.45620292644956   16.80726787400263
C         5.17452445570731   17.66388257771349   15.89697785555316
C         5.05547099810795   16.28171903650847   15.86780611181892
H         5.70337156257754   15.70996488865586   15.21781986671093
C         4.13284771153431   15.61303257833811   16.65992181858904
C         2.59943067275115   18.54315586543732   18.52679978420098
H         3.06114002329498   18.53229657626424   19.51405720340521
H         1.60506731474617   18.11630525854249   18.62945087163753
H         2.51350386597894   19.57671950212598   18.19903592758213
C         6.18667431247302   18.35441090355185   15.03256832260772
H         7.19346325381497   18.15197308447595   15.39797666893219
H         6.03192048819094   19.43053732717282   15.03448700815833
H         6.12689628630180   17.99207698896766   14.00759859252535
C         4.08328404197674   14.11444837044120   16.62955784773409
H         3.35570527910388   13.77094276636737   15.89273039146785
H         3.78873508423757   13.71846719196197   17.60190667568354
H         5.05691058143086   13.71064620737631   16.35700789573855
C        -2.41305551680962   16.70123710381566   18.67153538430592
H        -2.01473653407887   17.11091930430534   19.60378611995648
H        -2.98919325422152   15.80598787235632   18.89940892312002
H        -3.06506183676975   17.43358510574222   18.18287915969932
C        -1.28226677831307   13.35137047191135   19.37718174643094
H        -1.49313082198397   12.50514539848130   18.69813213380954
H        -1.14261599168558   14.24947442612802   18.77769687300190
H        -2.17151652791274   13.48065959848830   20.02244620160287
C        -0.28011573644925   11.87646806726313   20.91392553705196
H        -1.10962666605452   11.96656199495098   21.63973026858012
H         0.63156255718792   11.61966321530669   21.45349708151582
H        -0.53727416079967   11.03541869849920   20.24462312482658
C         2.78867075561543   11.73544767990770   19.74232911050318
H         3.61007560479164   11.67152420763320   19.00487726547871
H         1.85818461141403   11.44156826505967   19.25657053830081
H         3.01715096963627   10.99829154438513   20.53339842131947
C         3.88405559270838   13.38283602035884   21.01743481542083
H         4.07113927292730   12.64127315562354   21.81538944877634
H         3.79453585130188   14.36689805862451   21.47433916951243
H         4.76607190709846   13.37181612540780   20.34974670038645

