61
CSD_code = VUWBAS | q = 0 | S = 0 | Stoichiometry = C23H35ClCuN | MND = 2
Cu        6.53004285402607    3.08221039465842   12.81741988198444
Cl        7.09889028903212    3.39962869666658   14.78363205194377
N         4.79951223744861    3.22210567350278   10.58248845758790
C         5.94868375040811    2.81414351356668   11.04176573305355
C         4.51449575447250    2.93400035906906    9.15787583536999
C         5.70078416771168    2.03882723485837    8.76593395004932
C         6.70325279320013    2.11765231258265    9.93465245696907
C         3.85198495857314    3.91326480723250   11.40074109709168
C         3.90991019155405    5.30804336587964   11.51223272456767
C         2.90485246347981    5.95350277624837   12.22161694760577
C         1.89356980026255    5.24193973249193   12.83481561872126
C         1.91925630353353    3.86167150722673   12.81580116535499
C         2.90203484513587    3.17325278904147   12.11704538755533
C         5.08973910343818    6.11243360864601   11.01743694297369
C         4.68178107888020    7.33175013558280   10.18785319220653
C         5.91338549559660    6.55269820545774   12.23296548892064
C         2.99506596193119    1.67198786036350   12.26437244172944
C         1.66467268949319    0.96203251562648   12.00359603936288
C         3.49522185705175    1.35884861596946   13.67902328148427
C         4.48315935661559    4.22823745776266    8.34408096225821
C         3.17147214345965    2.22795796578059    8.98657984800015
C         7.16066822781938    0.73262659495074   10.41788490355530
C         8.07132406569134    0.04801313276006    9.40451735874460
C         9.29951881453296    0.90864599110640    9.13260117197293
C         8.87009268787642    2.27289473267814    8.60611173817467
C         7.94385435898327    2.96705179501167    9.59973951276671
H         5.36554931088470    1.01081900770780    8.62945497579484
H         6.14503633902507    2.37409329709844    7.83157921662044
H         2.92435808299778    7.02802512859552   12.31052370677660
H         1.11341024961381    5.76162523743065   13.37040990252363
H         1.17315787422019    3.31044876562869   13.36551885331212
H         5.73216421483765    5.47292424174042   10.40841790358706
H         4.01716123750054    7.05417576061900    9.37285602890216
H         5.56739106585897    7.79952613845257    9.76359295062985
H         4.17608836584201    8.07123062167325   10.80260748180535
H         5.33169484199522    7.20167217730198   12.88235856860040
H         6.80120523987688    7.09041914826283   11.90805791715551
H         6.22875770038334    5.68406961333734   12.81116963695242
H         3.74209697963675    1.28572256597424   11.56632388389905
H         1.23112450246911    1.27070067183134   11.05507423605092
H         0.94793610564945    1.17570847994544   12.79159994603161
H         1.82038670748625   -0.11436487718773   11.97882644161711
H         2.79312685720947    1.71825964052061   14.42684462348230
H         4.45794428024201    1.83930327453892   13.85490592629603
H         3.61765780410145    0.28535044667438   13.80385897357857
H         3.70662329719566    4.89000994454357    8.71871329426842
H         4.26232350895104    3.99557253356132    7.30491371315495
H         5.43832123940010    4.74459866730569    8.38140934935469
H         3.16636257119572    1.25975779052341    9.47797743345460
H         2.98297166648746    2.07169712254730    7.92690998742578
H         2.36609157428925    2.83530578892137    9.39353245333951
H         7.69830231011403    0.85873198719321   11.36041951651775
H         6.28494781924002    0.11112159549836   10.61943251536047
H         8.37523122958312   -0.92499119533388    9.79444489207425
H         7.53129773543183   -0.12076492936766    8.46992970053467
H         9.94984940789324    0.41657886450245    8.40695872634618
H         9.86310234625719    1.03774780165448   10.05865835883902
H         8.36498297978089    2.14531980764298    7.64577156952637
H         9.74598432421758    2.90213949431547    8.43725284172055
H         8.48669516046792    3.15457898978211   10.52898349335808
H         7.62793881945538    3.93376462184245    9.20082679110399

