104
CSD_code = VUWBEW | q = 0 | S = 0 | Stoichiometry = C37H61O2P3Pd | MND = 4
Pd        5.55669019964682    5.84002096165681   34.57798259515376
P         7.40160945561650    5.63466956246939   35.90338941231588
P         3.91126722106023    6.14681291100512   33.06943475444855
P         4.07178740889659    6.16259126515107   36.27173538769651
O         2.59809961238362    6.02201211521286   36.18093264857458
O         4.66163953094125    5.10746736142427   37.39783302838453
C         8.65108831303290    6.84367010632279   35.28052663513985
H         9.51295662812416    6.91920921236292   35.94504793390224
H         8.98609183588174    6.46500096682076   34.31094377732279
C         7.96983229523136    8.19484223916268   35.08610630189413
H         8.62368940002210    8.89455030100504   34.56854464828638
H         7.68840143283068    8.63325600783437   36.04345949381993
H         7.06179949208064    8.05211932595027   34.47670718102393
C         8.17457480916629    3.98713478881350   35.61313246892725
H         8.72072337216806    4.02659302737158   34.66734411627981
H         8.86966192704892    3.73442281430695   36.41817587855952
C         7.04375725097176    2.96728370869447   35.52346504080215
H         7.42164204343771    1.96874664672846   35.30953140647225
H         6.35705241191601    3.26375689222717   34.71569747054807
H         6.48243835130084    2.94123424854519   36.45701945376769
C         7.48667114218661    5.76800362313128   37.74676784412170
H         6.79697825812286    6.54930723001994   38.06654976652165
H         7.07215185887266    4.82520685671889   38.11225477844689
C         8.86941768051600    6.00530434415824   38.33997308791858
H         8.83256342663110    5.84815309159232   39.41671760609319
H         9.20648391231608    7.02466639270349   38.16616646317139
H         9.60793424931273    5.32150712239739   37.92463120478796
C         2.68579463558352    4.78988941881308   33.11611418559117
H         2.24281420411764    4.82814456496284   34.11587038976978
H         1.89789238696133    4.93827430738839   32.37339766301527
C         3.42524304773834    3.47129324312062   32.91017435761709
H         2.78414997544735    2.62084256209730   33.13225330470557
H         4.29512405442986    3.43880042816783   33.58015840186663
H         3.78087177851835    3.37351391738564   31.88534530265369
C         2.95105939104747    7.67523733940080   33.38937982865011
H         2.18550604468011    7.82738791692898   32.62499546154625
H         2.45765806978244    7.52502879509072   34.35292640528421
C         3.92619819539688    8.84725906571464   33.45943292417518
H         3.45182612171172    9.73388938804193   33.87620688636699
H         4.31022097860383    9.09748074319413   32.47124557455741
H         4.77656046946773    8.57149612517026   34.09915337068952
C         4.41685305900956    6.28580846442583   31.29840189627479
H         5.18397204818184    7.06541673442733   31.25609510090258
H         4.91948423691846    5.34614146719773   31.05161348891710
C         3.30331298264824    6.57555925321493   30.30163528110464
H         3.70724568746865    6.56551396054493   29.29083173109576
H         2.85994337798326    7.55325948748668   30.47427162933876
H         2.51849836407792    5.82476884980310   30.35622553825626
C         6.84393288885746    5.46557501720753   33.08499754529375
C         7.59618459562965    5.16746332064681   32.18141066468689
C         8.48473800693671    4.83799632066800   31.12840745033923
C         8.97818729443116    3.53787440990184   31.00196777276103
H         8.67117563820446    2.78452592141968   31.71471671321283
C         9.84590711578193    3.22015316041235   29.97591038860475
H        10.22333526089149    2.21105131767867   29.88492843931490
C        10.23451467841037    4.18839496219767   29.06363126712465
H        10.91355272230824    3.93628484109687   28.26200900615240
C         9.74905912298146    5.48108638482459   29.18267473184777
H        10.05067213025527    6.23792065859543   28.47185694673392
C         8.88081354190808    5.80790750444537   30.20541398144776
H         8.50062034941531    6.81573784939163   30.30199476417309
C         4.41810358332953    7.89186026629409   37.00512611922547
H         5.47084350501648    8.14661136942199   36.85407685420916
H         3.80034585788580    8.54995434310650   36.39043825612406
C         4.02342698984262    7.99809371153414   38.43005683422821
C         2.69256168954366    7.82126098543950   38.80199109091152
H         1.95758194953240    7.62850895834587   38.03614381899085
C         2.31591843017758    7.88278159385758   40.13022456944034
H         1.28037237135282    7.73577722901560   40.40220341275340
C         3.25772429387785    8.13880253392197   41.11374754412571
H         2.96119070240953    8.19419254150193   42.15127252522461
C         4.58136131484328    8.33059086179175   40.75639680272867
H         5.32326354699377    8.53830206850381   41.51496518926677
C         4.96019427850877    8.25528077207798   39.42746485219447
H         5.99766859956495    8.41370515322291   39.16199940237925
C         3.79825404616564    4.46625750007906   38.32091718199643
H         2.79635013083954    4.90105063198871   38.22640121383160
C         4.33281837465961    4.70271549683619   39.73275802447428
H         4.40632378195655    5.77450661151266   39.91161309573219
H         5.34025269106387    4.28220784558977   39.79956571222912
C         3.44084219862614    4.05344957471630   40.78648535815700
H         2.43834404000605    4.48721851505208   40.70179075960952
C         3.35192898365751    2.55459598813648   40.50600346673230
H         2.69002809349079    2.07806617542963   41.23294780823763
H         4.34336013196786    2.10741288684558   40.61507099029079
C         2.82644793704859    2.30801213789771   39.09549673864072
H         1.82324573098208    2.72929818400630   39.02188901366659
H         2.76108679673509    1.23381624426927   38.91304755054888
C         3.72658618299825    2.95505454414092   38.04023356010045
H         4.74379496161772    2.56132752739228   38.16893864928743
C         3.97390899945708    4.33141072994273   42.18861138980624
H         3.32639263395925    3.88525182335997   42.94028067482085
H         4.02450820452423    5.40309198869301   42.36654513639478
H         4.97269605525880    3.91539261240633   42.30587737315177
C         3.30012206406913    2.64472417958706   36.59241487067908
H         3.84132126229855    3.35393141538170   35.94737703363857
C         1.80627529233863    2.83499267653182   36.34387493851037
H         1.50612884218295    3.84931070577064   36.58766650913927
H         1.21653372408881    2.13438653088246   36.92994978607544
H         1.58372047234112    2.66031566669287   35.29329458394241
C         3.71403745583666    1.22900556686120   36.19160938670489
H         4.77957341182756    1.07172879302444   36.34288110102541
H         3.49240747296129    1.05336626402189   35.14126701293542
H         3.17152693862743    0.48995797000732   36.77756502923698

