14
CSD_code = VUWGEZ | q = 0 | S = 0 | Stoichiometry = C4H4Cl2HgN2O | MND = 4
Hg        1.76864500706282    1.33354469898021    5.67711944825699
Cl        0.22510790454656    2.92271995389339    6.21834802691065
Cl        2.86977033209635   -0.51162083052554    4.90076601822230
N         3.63180629231607    0.96341309407240    9.63627019959979
C         3.02774911776657    1.11751160785207    8.39048173189169
O         3.50860628004389    1.87916409596633    7.57525878654209
N         1.89997430129022    0.38672195602857    8.15042501112439
C         1.43020555222083   -0.41777218160014    9.05665960236827
C         2.02832377152538   -0.59384590744401   10.32129854207121
C         3.15434652718318    0.13313822906044   10.57658540887382
H         4.46720210036923    1.51678878273195    9.79141484365891
H         3.69418656968392    0.07758604510346   11.51129016811360
H         1.61364362450666   -1.27057419549929   11.04645531566949
H         0.53353261938896   -0.96327534861880    8.79192689669304

