65
CSD_code = VUWJEE | q = 0 | S = 0 | Stoichiometry = C27H31BrN2O2SiW | MND = 6
Br        6.73972727115488    6.25780702397647   15.02062809484967
N         8.99190044135155    8.20124569209500   13.21101443717977
N         7.32597498324411   10.05984537781842   14.82623340294488
O         3.63470323218049    8.72162138152632   13.63688319177315
O         6.59622188140016    7.64441150183511   10.49342555206031
Si        5.97061333179104   11.19446499055331   10.97724186652202
W         6.71601637738894    8.27726194072175   13.50044177984318
C         6.31308335607860    9.64801948536397   11.95397859225493
C         4.76507518013408    8.49298732482480   13.66526411279687
C         6.46351972054472    8.44566180567994   11.37819514403559
C         9.51693587119874    8.95474947031363   14.35966174570541
C         8.76058672700626   10.27117275812007   14.57304433431345
C         9.42089075009764    8.83452795536429   11.95990505694232
C         9.54452399793623    6.84358935932432   13.21224702235697
C         6.61243867315720   11.32227264492957   14.65772492912486
C         7.11403031379569    9.61807739741092   16.20945273703134
C         7.73482497658393   11.82475540658175   10.61985898810219
C         8.44458000338644   11.29715432498627    9.54449949730815
C         9.75421686573505   11.66748409475348    9.29794652303541
C        10.38736306688639   12.57378267337556   10.13255736390603
C         9.69906991207482   13.10804735863339   11.20866992599283
C         8.38771256993869   12.73392933162199   11.44688708900866
C         5.08140479728123   10.81613657334162    9.34943829786266
C         4.20312005855360    9.73996476102638    9.27313133299068
C         3.54200705811543    9.44305978666558    8.09560019966128
C         3.74640302248042   10.22415368248436    6.97069013209232
C         4.61172067247856   11.30359606058752    7.03151741474684
C         5.27105036173108   11.59531683154825    8.21151902034782
C         4.95543949774564   12.51404862816288   11.88436409470393
C         5.16341135610100   13.86864181945590   11.64661344437691
C         4.38312010546173   14.83068082431862   12.26237771987510
C         3.36873411407038   14.45170185202074   13.12504310107879
C         3.13658779482456   13.10680335149203   13.36012471668237
C         3.92216274203742   12.15096319017144   12.74285310599565
H        10.58618868673152    9.18168218840794   14.21790568563790
H         9.42820287530385    8.32456529139538   15.25264239886095
H         9.21870935611058   10.80972073414693   15.41578209742735
H         8.85759479030291   10.89672419828702   13.68050271677966
H         9.06906624817587    8.24775126003856   11.11164301525044
H        10.51709551800254    8.88994818343697   11.90848714182066
H         9.01224958677339    9.83932458800651   11.85954636078655
H         9.07677792532396    6.26512353645721   12.41338801292813
H        10.62960748821185    6.85739255928930   13.04543192203415
H         9.34957133152144    6.34255983554452   14.16024765386474
H         5.55110856302773   11.16235512502559   14.83296310427892
H         6.98064060953473   12.07714680681198   15.36222874458286
H         6.73309398572865   11.68889607189992   13.64318540884016
H         6.05218155904866    9.42528014281236   16.36444271371520
H         7.43885789844570   10.39227698622347   16.91582280655614
H         7.65910125365080    8.69988965799297   16.42646460689533
H         7.95779424282861   10.58503342103911    8.89461614196998
H        10.28374626971370   11.24943338142774    8.45397655083611
H        11.41033096892843   12.86534075709328    9.94354433929520
H        10.18435700404335   13.82001484926130   11.86181987288015
H         7.85732533379163   13.16912095620461   12.28322452895424
H         4.04316040133331    9.12452760435979   10.14680795121902
H         2.86836113685926    8.59943330130506    8.05330295972268
H         3.23335297337939    9.99234072117705    6.04828896042580
H         4.77386154528636   11.91708277381726    6.15625196472267
H         5.94847563088369   12.43763928297368    8.25128116787664
H         5.94568426288894   14.17376271406105   10.96614744189697
H         4.56230929223576   15.87834269851961   12.06569405072946
H         2.75697427353096   15.20135841018944   13.60581009904440
H         2.33829119271624   12.80346939666629   14.02210909264659
H         3.73255671171806   11.10392590511068   12.92240651993525

