47
CSD_code = VUWTOW | q = 0 | S = 0 | Stoichiometry = C15H24N4NiO3 | MND = 4
Ni        7.54926668240293    2.33381454789847   10.87519891247250
O         8.53428595667710    1.49919547086135    8.40069378514267
O         9.70583122087133    3.45808757658613    9.32017596156278
O         3.83716979796483    1.17120102800242   14.61982904447308
N         7.65918703976489    1.29684396867618    9.34914232894950
N         8.95926568237297    3.50843555711028   10.43998031784238
N         7.42278641320559    3.37754157033027   12.43855494816656
N         6.15013316094336    1.19613410090751   11.33856970211116
C         6.81847567391888    0.32378176687417    9.23463535554315
C         9.22900124575693    4.43779165100599   11.28300308395417
C         6.85372723368922   -0.55640496174161    8.02844418830342
C        10.32710273109396    5.40960490076412   11.01193432349442
C         5.83434305167133    0.13891672543241   10.36232916973434
C         8.38646520673603    4.48448463912903   12.53717793851091
C         4.40212285165565    0.31706177631900    9.83708044588207
C         6.02686543633733   -1.24677086673451   10.99570539530624
C         7.64976277066334    5.83218290259940   12.59430252869075
C         9.29983414419713    4.29331163689159   13.75848340528723
C         5.44900027369464    1.26352085066371   12.42837581904985
C         5.59983516194354    2.20232998690376   13.46759504639670
C         6.57603542645218    3.20684157310667   13.41527008764516
C         4.67620662374483    2.05627692505220   14.58952104792071
C         4.78144448533819    3.04415015188033   15.73557492425709
H         9.30281667375556    2.60905221119181    8.77534894910544
H         6.05828657332293   -1.29339167428567    8.03615063018643
H         7.81928030230783   -1.06064743071117    7.97727556380914
H         6.77595905891747    0.06103675071624    7.13311365493367
H        11.26064373673883    4.86304392366513   10.87578231154053
H        10.44390052157958    6.13970103575180   11.80494685129650
H        10.12598879965327    5.92006237958078   10.06973016027398
H         4.28609267836925    1.31760147008902    9.42485311207669
H         3.67931658497711    0.18429859411409   10.63736248806249
H         4.18996553967571   -0.40907281982346    9.05782353942264
H         7.03368405095947   -1.32631176419457   11.40115193322484
H         5.88671901684939   -2.02580328137057   10.25204596434450
H         5.31400103298028   -1.40628466027348   11.79995445964938
H         8.35545196992940    6.65710120303566   12.56430392556788
H         7.06662190039035    5.91590503019544   13.50743575694974
H         6.97628739582584    5.91496729445957   11.74352259210246
H         9.76732091300138    3.31166793780310   13.71305385058817
H         8.73137231944636    4.36418177341390   14.68188712285445
H        10.07734936724980    5.05124648457773   13.77853669626132
H         4.65037963905470    0.54452238861817   12.60485790555876
H         6.61968417079013    3.88880065282906   14.25994514028876
H         4.61097026825877    4.05883863071635   15.38228810191634
H         5.76292089836733    2.98614547071079   16.20122638138637
H         4.02493831650242    2.79650492067395   16.47592514790388

