86
CSD_code = VUWTUD | q = 0 | S = 0 | Stoichiometry = C27H52N4Si2Zn | MND = 4
Zn        2.54547463543734    3.65395561814812    7.03425629085541
Si        0.99661638749548    6.29697346019707    6.15802901550433
Si        4.03144334242243    6.21116239555356    6.09223811823975
N         2.34129553483023    3.25622585062795    8.98850159969660
N         3.98862545256689    2.35932888214460    6.76003146787122
N         1.80078200594010    2.36155963889168    5.19715409622021
N         2.49729496214583    5.49186698152015    6.42701823029020
C         3.14750907050116    2.39592991526271   11.14827897285051
H         2.18551620164146    2.73421200324885   11.52347076702917
H         3.93576869906310    2.95872898644497   11.64534891198228
H         3.28177549949542    1.34606158091300   11.40355367711806
C         3.25756751543795    2.58108342954426    9.65081287627834
C         4.36589382761452    1.96161712410762    9.07132092597987
H         5.03168716561984    1.47751522602522    9.77118450796647
C         4.70678914058426    1.83210730384421    7.72708934880906
C         5.93021775283545    1.01265918547068    7.40083434162617
H         5.64528693612350    0.07404485488857    6.92447905962168
H         6.49293952624219    0.78231684261098    8.30020997199743
H         6.57468170800176    1.55520566308690    6.71097699418818
C         4.25166129785589    2.01805413306679    5.38706208341149
H         4.36667129335510    0.93096858178896    5.27271065067803
H         5.17940290952580    2.48414208357288    5.02609933530083
C         3.08990184949447    2.50982080039833    4.52063842339997
H         3.21974077417483    3.57389795664776    4.32455216875858
H         3.09455481604884    1.96310901162510    3.56368648456475
C         1.51626043906869    0.95590930879022    5.46537966694778
H         1.57267882396128    0.35375641066252    4.54800731828733
H         0.51327907583602    0.86353460399083    5.87765002923670
H         2.22134375663091    0.56448900792575    6.19387094063968
C         0.75829587033446    2.89905774500470    4.33311410665051
H         0.92822758038558    3.96068631975769    4.17986740975637
H        -0.21219505754757    2.77039731777304    4.80640121994007
H         0.74430144650288    2.38818248077164    3.35997374961878
C         1.26457867963763    3.87490873431739    9.66283297521666
C         1.45267030867015    5.06870069653015   10.37551955209899
C         0.34509466806608    5.69132290015583   10.93356605704702
H         0.47113457214363    6.61934876280239   11.47074687839896
C        -0.91661788040330    5.14118202795105   10.82559781098193
H        -1.76540323695725    5.63692875081708   11.27392370864101
C        -1.08928633230557    3.94726449711745   10.15094496648854
H        -2.07624832651551    3.51657399790215   10.08962719976060
C        -0.01431614191364    3.30505370664304    9.55621131639154
C         2.82045058897035    5.68717502794617   10.55452501818292
H         3.56882304953037    5.01789691355999   10.12335036999392
C         3.14484328183368    5.89036616520585   12.03861145807101
H         2.52437027472180    6.67343499375325   12.46772742233253
H         4.18604290987200    6.18499695494532   12.15427507924628
H         2.97827821346660    4.97827571669656   12.60701491366949
C         2.91438695296915    7.01732128927835    9.80803046801047
H         2.75152598830373    6.85216541651595    8.74747059838416
H         3.90136040701213    7.45384425688547    9.94932805452479
H         2.17354759137969    7.72384129371952   10.17565426142301
C        -0.18959427552976    1.98509161470871    8.83812656536886
H         0.58169986993462    1.93172276598710    8.05881319282750
C         0.04577050334166    0.82549610796102    9.81163462779444
H         1.06236175613717    0.84609911724243   10.19211279058677
H        -0.11419923552747   -0.12707427625904    9.30979730908399
H        -0.64200765984490    0.89352090396204   10.65251155950255
C        -1.55705976120115    1.83012150167490    8.17255730626073
H        -1.55214513434942    0.95941958411212    7.51821708148668
H        -1.80230140101537    2.70828530173859    7.58095033070056
H        -2.33900727195419    1.67833939261832    8.91284822632407
C        -0.40636826499676    5.07644421455184    6.59486057355459
H         0.00662891188795    4.09853046165986    6.82551207932104
H        -1.12590153601596    4.96522678921053    5.79057263916545
H        -0.94534295636102    5.41429346547957    7.47305319914128
C         0.62191564646390    7.84892319352634    7.21107779506935
H         0.44494901866086    7.59021071077869    8.24971948965907
H        -0.27427552436886    8.33804023830632    6.83948234459710
H         1.42574854342213    8.57399626719144    7.17864792276039
C         0.82541226155187    6.86192639886760    4.33192116572289
H         1.45572508860513    7.72553416956300    4.15075028490624
H        -0.19572537306734    7.14896555616528    4.10145901036795
H         1.12047447758528    6.09748043942207    3.61998469983224
C         4.05238778068243    8.11552110235687    6.19654654984707
H         3.34990800101094    8.55136717062045    5.49592805498482
H         5.03937489985143    8.49458037661523    5.95059158315708
H         3.80185275210762    8.47647754294249    7.18708719367745
C         4.66853312454409    5.82491678308204    4.31724559873664
H         5.11190309606816    4.83660106212796    4.24085498957945
H         5.43172931401900    6.54052194102611    4.02668505778219
H         3.86927616816369    5.89201476775706    3.58576024596642
C         5.34294176112343    5.56573078614838    7.32664016426537
H         5.44380183554498    6.22846667180732    8.17862343204875
H         6.31893176783182    5.48829959301496    6.85798890382002
H         5.07787600758679    4.58414547698532    7.70647716191993

