49
CSD_code = VUWWUF | q = 1 | S = 0 | Stoichiometry = C20H28Ir(1+) | MND = 9
Ir        5.91616527177808    5.64027315196030    0.02227440878278
C         6.63949317622125    6.77154071942768    1.75164866128405
C         5.67901545479402    7.53042798109676    1.08465998921734
C         6.33130591986537    8.65498124792843    0.30743020570903
C         6.11792085791219    8.50455058980443   -1.20737353143740
C         6.21532618498566    7.00665932871889   -1.48444339421817
C         7.70782503536168    6.70162820631927   -1.36059567320944
C         8.30675392864809    8.04898908842113   -0.94395814527887
C         7.44978124130417    9.01020035099381   -1.77735727074430
C         8.01547569970892    7.36630890172306    1.57857434176023
C         7.85777518475542    8.42718586621100    0.47930194020518
C         5.36234828066815    3.79827495282565   -1.08577519443803
C         5.91650193585367    3.29654954167361    0.17472780171104
C         5.14322264866039    3.78714462259102    1.22032998235957
C         4.10477251547760    4.63854720975872    0.63923673621059
C         4.17364855281237    4.50962126598234   -0.80030990191073
C         5.81751871347598    3.33913789024424   -2.43040711485133
C         7.04597815480283    2.33260371544658    0.26999658011917
C         5.24473615198614    3.42856266077766    2.66400591585711
C         2.93355455773647    5.17033760164236    1.39072041549330
C         3.12572519024195    4.95902989202479   -1.76137222537295
H         6.43526061774499    6.20489702727868    2.65266636409369
H         4.65669320214841    7.64829170375849    1.42258007545917
H         5.99921158127240    9.62557926671673    0.67662541209827
H         5.21587616201064    8.97550529444535   -1.58658180981177
H         5.76157822595991    6.71668599016380   -2.43302972468073
H         8.13841805268115    6.33557591045481   -2.29307625041713
H         7.90125006877871    5.89631886471728   -0.59848528341503
H         9.38330095296418    8.11322821353273   -1.08895886194708
H         7.63603877466609   10.05739337125922   -1.55299479287341
H         7.54252908984987    8.84813846882147   -2.84880553651290
H         8.79834122168094    6.63722457636493    1.36314180551987
H         8.28939496065273    7.84492387068588    2.52238305376318
H         8.36968701511516    9.34632806603781    0.76391218023706
H         5.45251656446793    3.99279185158206   -3.21833960058518
H         6.90288883429034    3.29073282997566   -2.49177169400873
H         5.43154695299175    2.33648818788947   -2.61906038070372
H         7.79267354286115    2.51016230126242   -0.50109020547826
H         7.52721787660307    2.37880337412687    1.24403301722912
H         6.66692289980503    1.31876948523451    0.13268476128807
H         6.26795125828001    3.18958046652215    2.94462745112826
H         4.88501372767347    4.23268069941136    3.30138745529071
H         4.63027651806012    2.54954914736536    2.86229237378051
H         3.21228895812713    5.51090560895012    2.38493544863120
H         2.45617194335998    5.98680004276720    0.85529595404114
H         2.19942525322071    4.37135813677317    1.50658279983393
H         2.69843934361446    5.91357674803265   -1.46597735696583
H         3.52170753852512    5.05216512094713   -2.76830599376611
H         2.32163420555142    4.22259058934832   -1.78148518847421

