50
CSD_code = VUWYOB | q = 1 | S = 0 | Stoichiometry = C12H31N2P2PtS2(1+) | MND = 4
Pt       -2.43018841046023    1.80423405980446    1.43909155315990
S        -1.76497314963091   -0.03674371926829   -1.13894162932385
S        -2.63964226324811   -0.52071912334731    1.48746090230691
P        -2.19679285443678    4.15354799067296    1.12546709977502
P        -3.09109378902572    1.85304913719599    3.63244668809498
N        -1.83373952623928    1.45956643354608   -0.51847260844169
N        -2.20459485225564   -0.97029785223199    0.00554695496949
C        -0.93021164683134    4.59980026175186   -0.13825414044254
C         0.41835146062457    3.96156442959535    0.17662989376655
C        -1.78111665327334    5.31653111525087    2.50475272704344
C        -1.94329107158669    6.79941573053448    2.18883741233551
C        -3.76104690640384    4.82500334202345    0.42228038713665
C        -4.37368426032999    3.84539550099516   -0.57348849259825
C        -4.50345361400101    2.96640591649128    4.01087506344429
C        -5.71812925504050    2.54755782544336    3.18908186479000
C        -1.70010704595605    2.37625108176497    4.71740207107489
C        -0.39319326774202    1.83708704791843    4.14269710979086
C        -3.59920668365453    0.22881974924232    4.33593140073177
C        -4.20960915242305    0.28397828617339    5.73229161927405
H        -1.57199353069363    2.14573862572272   -1.21402144460744
H        -0.83983873624229    5.68773332003160   -0.17375060237139
H        -1.29207247060355    4.27509222527564   -1.11633320819319
H         1.11965574089658    4.12816037827672   -0.63745856627861
H         0.31014143325446    2.88642523485525    0.32515673974177
H         0.84711821015499    4.38675372013772    1.08093582298714
H        -0.74793220454164    5.10356415928384    2.79166841670584
H        -2.41518025555309    5.06232103410392    3.35587293290627
H        -1.63526377810088    7.38306218854186    3.05347981251638
H        -2.97857448928442    7.04669567496826    1.97115107868629
H        -1.32707493498439    7.10817189172741    1.34934325589428
H        -3.56236276174952    5.78642534976131   -0.05665102789935
H        -4.45174310188940    4.98743223290754    1.25353400084525
H        -5.38109847562886    4.15328738920668   -0.84200716180581
H        -4.42407550926404    2.84278107376243   -0.13768776073215
H        -3.78448642637481    3.79393928362108   -1.48604023682876
H        -4.21489722805713    3.98678143887671    3.75061497290070
H        -4.71244704817149    2.93691303615229    5.08201975314859
H        -6.51106740665543    3.28690762665495    3.26915748569938
H        -6.11088454808315    1.59243382029493    3.52723163867936
H        -5.43904872472619    2.44885646195288    2.13880982683452
H        -1.86177399110614    1.99422453824514    5.72700241858397
H        -1.67195375090693    3.46540599962091    4.76863386738763
H         0.45966928292922    2.20583475017090    4.70686210330747
H        -0.28442720456273    2.15311140912635    3.09984450384184
H        -0.37669975419151    0.74986567771510    4.17505553670427
H        -2.70092150533568   -0.39516661599558    4.34322318371958
H        -4.30495270647094   -0.23143183846767    3.64036631042007
H        -4.33582122429668   -0.72997957764886    6.10433461199119
H        -5.18819591935109    0.75573503634897    5.72245553661725
H        -3.57357403845932    0.81757724121613    6.43456032174639

