94
CSD_code = VUXDUN | q = 0 | S = 0 | Stoichiometry = C36H54AuClP2 | MND = 3
Au        0.70251051386999    3.42148414883464    3.82027112021402
Cl        2.87101759383122    2.46670878122165    4.95570015113236
P         0.92058907685979    5.43742328187636    4.91769609100915
P         0.03467214372218    1.86439774162511    2.27573462904308
C         2.17376185422329    6.51830189589521    4.10282152103045
C         1.73991040428068    6.65569805022336    2.64114343560051
C         2.77733640676534    7.42066378729000    1.82747752250494
C         4.12738654357587    6.71617924956475    1.91278209838579
C         4.57593945474200    6.61746457447225    3.36677816579194
C         3.54918655250842    5.86064606825895    4.20307941993839
C        -0.57140353544337    6.47108206580187    5.05559535029629
C        -0.57224683027077    7.85227423119670    5.21675297427387
C        -1.77058306951590    8.53640744395223    5.31883912845638
C        -2.97499055043049    7.85422769603583    5.26302623827311
C        -2.98309295789583    6.47816181755559    5.10253291363107
C        -1.78672071982260    5.79494084670034    4.99622312051210
C         1.46911996064107    5.20472402615319    6.66001657183637
C         0.43024159437220    4.33257007118782    7.36430414786549
C         0.90282908296314    3.99460374647549    8.77384050970750
C         1.16482280758826    5.27165343061330    9.56632674162483
C         2.19827591746718    6.13796371589348    8.85279459078363
C         1.72513607347755    6.48776395768907    7.44341303533454
C        -0.15802273271890    0.13072791417385    2.88648429390682
C        -0.69771721445601   -0.86460929138423    1.86189321471709
C        -0.80813258844775   -2.24753547660224    2.50230165242171
C         0.54247895411237   -2.70559611159972    3.04559938245559
C         1.08398116976742   -1.69790812900279    4.05581693315742
C         1.20563895798978   -0.32365804764536    3.40918035511331
C         1.21631782462594    1.70153653729643    0.91236214335662
C         2.55014792049566    1.93073136804650    1.24584463033289
C         3.53572908133644    1.81073970523223    0.28380634509650
C         3.19626566722230    1.47083554791454   -1.01593865806684
C         1.87061297090118    1.24761911890007   -1.35186790133655
C         0.87914160580209    1.35946850749433   -0.39346488556577
C        -1.57273600934272    2.34263169379963    1.49332767279836
C        -2.65087655572800    2.33248018177496    2.57612764037060
C        -3.95738448621850    2.93422672446487    2.06747392239998
C        -3.73238796250809    4.34867314321144    1.54358450024961
C        -2.69800518530282    4.33144356310863    0.42326485007383
C        -1.38306543066964    3.75283568697700    0.93296976258912
H         2.20073535320109    7.50865172714070    4.57517816704557
H         0.76682946215937    7.15540593866004    2.58654124155022
H         1.62264465301645    5.65098675483957    2.21780173918836
H         2.87056660534870    8.43799750666415    2.21661459863003
H         2.45172248384748    7.48865267504438    0.78708275004398
H         4.87123510619063    7.26111766308417    1.32760727528205
H         4.03706181706523    5.71136708729181    1.49372481875559
H         4.70553618695386    7.62515610090479    3.77300000907940
H         5.53823214361183    6.10641657762435    3.42705898254519
H         3.47940001928883    4.82373274411952    3.86413439406330
H         3.87758273946027    5.83675625806983    5.24421128746607
H         0.35787446677557    8.39918053735381    5.26349137222721
H        -1.76518458527285    9.60953377946890    5.44457990668276
H        -3.90645032107483    8.39475805216828    5.34286345008757
H        -3.92023892974315    5.94226252048468    5.05731804329754
H        -1.77272116341221    4.71910204819266    4.86547758231749
H         2.39220304086049    4.61748528009084    6.56057889462917
H         0.29045192857190    3.41311150682024    6.78738269946454
H        -0.52908915340319    4.85963534380052    7.41134855220795
H         1.82174874607716    3.40919966113491    8.70720548000632
H         0.15126522135258    3.38578192094828    9.28108166728137
H         1.51931488014146    5.02178172848209   10.56834034858236
H         0.23175434904866    5.83206314782582    9.67087085480489
H         3.14268171299877    5.59304116342298    8.78900720049414
H         2.37530375574879    7.05445638861089    9.42071232155912
H         0.79977369390567    7.06873253757208    7.50545417793659
H         2.48091110362168    7.09971289267150    6.94519744959410
H        -0.85337173070013    0.20082614222628    3.73613692200970
H        -0.01515571112508   -0.91163998695531    1.00928243075096
H        -1.68033450863659   -0.55377382080566    1.49722410685326
H        -1.17717426956146   -2.96424639472247    1.76485338494908
H        -1.53174908095078   -2.20799185639712    3.32073900667923
H         1.25001527868846   -2.80216748983370    2.21857673675856
H         0.43792253697051   -3.68686665471529    3.51314264225635
H         2.06140203925452   -2.01859685340161    4.41891576702813
H         0.41073923824960   -1.64097025052120    4.91461790415518
H         1.59925764497301    0.40509851631893    4.12311936025104
H         1.91116863951021   -0.38095238243694    2.57548559138177
H         2.80297461405041    2.19097486111558    2.26620572661654
H         4.56827365528759    1.98303730258669    0.54847552020078
H         3.96422940053606    1.37917351516445   -1.76999289869742
H         1.60766901455974    0.98208495078840   -2.36592272673353
H        -0.15109422850108    1.18057025622206   -0.66699851397060
H        -1.84580324719374    1.65130415480745    0.68888670624783
H        -2.28818125373862    2.91443076984543    3.43072432956202
H        -2.82767677751455    1.31052601787203    2.92048930142867
H        -4.69320000856490    2.94499458489610    2.87429341532596
H        -4.35394334014354    2.30973114908989    1.26282918408700
H        -3.37348647998168    4.98654140454195    2.35495497859672
H        -4.67346282263158    4.76443905023987    1.17837629587562
H        -2.53208601185187    5.34385707255705    0.05002089912371
H        -3.06876562337788    3.72445946982556   -0.40650431074550
H        -0.63929266182998    3.73620416968447    0.13131496155468
H        -0.99240392646274    4.39448949485664    1.73237268233633

