38
CSD_code = VUXGEA | q = -1 | S = 0 | Stoichiometry = C17H13Br3NO2PtS(1-) | MND = 4
Pt        1.18040815239128    7.69733682179298    4.91165172523249
Br       -0.07553289653467    7.22252465813041    2.93419492106144
Br        3.01862351900632    8.78630195833714    3.64327606991040
Br       -0.48487556446747    6.62005360917171    6.38405512828249
S         3.85905101629826    8.14404830437999    8.52399299978667
O         3.70065602086533    4.11892266161122    4.65417118803404
O         4.93540314877560    3.61693395677390    2.83285570160615
N         2.19585699371477    8.15792351871576    6.54561662367755
C         2.01719310851896    9.35284861644343    7.17539037558485
C         1.11719574140107   10.34721059227314    6.80093244807880
C         1.06293034191027   11.50473923249344    7.54618959598541
C         1.88865834335218   11.68275431913714    8.65392537495484
C         2.78661352814709   10.70568361526275    9.04086780572332
C         2.84591493378881    9.54115469246320    8.29636384358555
C         3.10858264741492    7.40262789951279    7.10762822601556
C         3.46100180373979    6.11757109478214    6.63025139576770
C         4.40360402353378    5.33132599294579    7.19382483747564
C         4.81366160724189    4.01404519497632    6.77920692457116
C         4.48201659059848    3.41419251457889    5.54660793991557
C         4.90647311131617    2.12874113944363    5.24866003566580
C         5.68088982970536    1.41665171358708    6.14727335607795
C         6.03870719554912    1.99344564659727    7.35486805758606
C         5.61041976088298    3.26784947011672    7.65810604600481
C         3.99347223098907    4.17312554648221    3.33234677036567
C         3.00538217340417    5.04221932881070    2.62792264221811
H         0.48063018287681   10.19497217643408    5.93697352958316
H         0.37103460887021   12.28541200392061    7.26814927753702
H         1.82730648010127   12.59974764450971    9.22142677438881
H         3.42798425374363   10.83954629028484    9.89834455406670
H         2.89836932023361    5.78427269540865    5.76512653089984
H         4.90606046988854    5.70560183454121    8.08013301425444
H         4.63112726946605    1.69051559787589    4.30254498568592
H         6.00364283680160    0.41626782566490    5.90064354981219
H         6.64985660381106    1.44718951830195    8.05886280489717
H         5.88452967078493    3.71386523710603    8.60381076844221
H         2.01391114963658    4.93598380542350    3.06259746581855
H         3.31348497180716    6.08356894011169    2.74142382066300
H         2.98285482043658    4.81072433159652    1.56768289078751

