42
CSD_code = VUXQOV | q = -1 | S = 0 | Stoichiometry = C16H11Cl6N2O6Zn(1-) | MND = 5
Zn       14.71738676351887   13.45807148913754    3.88988676884677
N        16.59911866807953   13.08279670644994    3.19004942754816
C        16.96189056852774   11.95210416620580    2.61892297959934
H        16.18127194088251   11.21209482245603    2.52320692890222
C        18.25521902651788   11.73509609473069    2.16415537020831
H        18.51721239021539   10.80244486416122    1.68979219102244
C        19.19108116510654   12.74095533754551    2.33537173696156
H        20.21180152818065   12.60883736431268    2.00445473488040
C        18.80166567036963   13.92622941522657    2.93582932539904
H        19.51594316505171   14.71950830293398    3.08977748250843
C        17.47782692990555   14.07001098721293    3.34266166577173
C        16.94508447804377   15.29978713449897    3.94891982942541
C        17.56879099901379   16.54112170421586    3.83868470809815
H        18.48643115024700   16.64781525229040    3.28364071620507
C        16.95711717996198   17.64775485655083    4.40013218142201
H        17.40418278380428   18.62631975154954    4.30206491988712
C        15.75515349803637   17.48569999016578    5.07047246097255
H        15.24363108012679   18.32574076857069    5.51239313125602
C        15.20402439137777   16.21546207083948    5.13213461459775
H        14.25814052660856   16.02491113539800    5.61909697082073
N        15.78399079632809   15.16310473808321    4.58585044538745
O        13.92828059200187   14.76530235604197    2.59493108086354
C        14.63174224211321   15.40784343129279    1.79186875716368
O        15.80173829752800   15.25026597565755    1.47628935341040
C        13.91871650083848   16.62745997198179    1.11081216394244
H        14.13007807641632   16.66291335754789    0.04039080730910
Cl       14.62212842733074   18.08627989702881    1.82159372377662
Cl       12.17977968573804   16.61171372332844    1.35356616520075
O        13.97900085412057   11.89287586014716    3.07068466642219
C        12.86698169411734   11.57881470213255    2.56059289537423
O        12.65720205454083   10.72095831077792    1.73045946757693
C        11.66052745691647   12.38899910817256    3.14603961633665
H        11.93778605700884   13.42067510948988    3.36362326615181
Cl       10.28118703557313   12.38133454508717    2.06420152291956
Cl       11.23118537181448   11.61998582141008    4.67442444757993
O        13.38712501482134   13.66442518108760    5.41803051359779
C        14.05745994025290   12.84389402820115    6.07066549802134
O        15.15950259004428   12.40767665083764    5.74386765520371
C        13.42107041288018   12.40728434452061    7.39993962605168
H        12.35340224185926   12.21470267230508    7.27725694287242
Cl       14.19394687201162   10.97612745356652    8.04902526089393
Cl       13.59969388220193   13.76170054683003    8.51833797963152

