49
CSD_code = VUXTOZ | q = 0 | S = 0 | Stoichiometry = C22H18Cl2N6Zn | MND = 4
Zn       13.79603069013788    2.70671093243347   12.09828125868339
Cl       13.78932536126831    1.67748098149228   10.08844012230173
N        11.60969330139518    3.19567091254481   11.99611010613600
N        12.89867947266519    4.64827732772438   13.09954785155842
N        13.15767326226896    5.82413526230181   13.47512353150372
C        10.46787638571463    2.73664026285887   11.53225510969552
H        10.52206676779210    1.80843786655036   10.98111052054045
C         9.26650587815657    3.40628352201741   11.73396207900157
H         8.34586771001351    2.99963850654983   11.34713860191955
C         9.27697314768140    4.59737664426368   12.44708453494344
H         8.35943426196318    5.13914847133325   12.62284572895393
C        10.47629371514117    5.08383640876159   12.93174872315082
H        10.54783357898356    5.99955482788582   13.49644094799115
C        11.63142463035078    4.34255683939207   12.67241621615110
C        14.43121127063371    6.05039206207713   13.94058332719882
C        14.93458275383668    7.34978060467709   13.80361270927624
H        14.31298100611217    8.10222494107699   13.34434725860302
C        16.22109008975250    7.63052232255298   14.21154609371833
H        16.62081066551561    8.62580607836658   14.08674672927637
C        17.00097642555643    6.63774189425230   14.79017224776035
H        18.00469716189565    6.86630435484349   15.11665192589772
C        16.48948477713799    5.35970469722327   14.96750392233342
H        17.09098582136910    4.59729014309750   15.43941268509294
C        15.21359149733893    5.05356917913972   14.54227126646326
H        14.79233387133809    4.06947189457755   14.69157582680404
Cl       13.80234181179260    1.67741940562299   14.10810072973614
N        15.98226263708655    3.19570741266018   12.20040955251148
N        14.69347970696005    4.64814038493711   11.09648340566511
N        14.43417240961499    5.82414259363841   10.72159390726734
C        17.12412914402891    2.73638508318598   12.66385603846676
H        17.06988960595085    1.80829208347693   13.21515523364430
C        18.32572455031821    3.40511596398805   12.46073805426071
H        19.24643559467643    2.99819723093422   12.84711215489869
C        18.31540381519344    4.59594802851194   11.74715788289833
H        19.23310892914330    5.13700853253691   11.57034856906422
C        17.11602471311120    5.08282072753422   11.26310074982076
H        17.04458131012009    5.99827564854358   10.69797452843144
C        15.96068524013857    4.34224645151545   11.52348663692886
C        13.16063941513604    6.05004449653498   10.25585001707809
C        12.65657794536511    7.34909245186761   10.39339245951241
H        13.27768564486426    8.10162409099067   10.85318994071500
C        11.37004587489902    7.62942361250238    9.98521185672333
H        10.96983653437689    8.62449112452406   10.11029714145610
C        10.59085761909734    6.63661481960650    9.40571045082787
H         9.58714722790441    6.86483171593633    9.07901287010676
C        11.10299248674347    5.35890221677791    9.22793869545681
H        10.50203544890025    4.59639331752467    8.75546881788265
C        12.37888926522023    5.05314277767930    9.65347942535982
H        12.80062956535036    4.06928289098102    9.50390155632282

