44
CSD_code = VUYCEZ | q = 0 | S = 0 | Stoichiometry = C17H17MoN3O5S | MND = 6
Mo        1.44513285577940    8.02570880957871    8.99583538387845
S        -0.32313341437321    6.83854152389786    5.00379767630618
O         1.65395954448975    9.61698152593607    9.87882339479069
O         2.65450943732520   10.82025907433988   11.98583491054268
O         2.97146449612011    7.52107528224228    8.63385583274914
O         0.70570330354145    7.12750780424145   10.15561654794590
O        -1.01918370187993    9.18135944478619    8.88611363600713
H        -0.95914842339747   10.14699025053695    8.92631941357006
N         0.48297869716904    7.05843622405256    7.47543535918186
N         0.80213896033549    8.96055951307383    6.17047333579002
N         1.31317817795344    9.44217174111635    7.32722885641057
C         0.39006785644601    7.73266095972577    6.31684411632886
C         0.00179672819996    5.77296351528641    7.35288080012062
C        -0.01140447971405    4.80890516062775    8.35572407286831
H         0.38109329559319    5.06995143789671    9.33059604815021
C        -0.52618998006132    3.55949854289822    8.06636450338391
H        -0.54259881520840    2.80209422546345    8.83488970934904
C        -1.01900958929803    3.25869962380486    6.80025390187074
H        -1.41355576359887    2.27486691116467    6.59842984300533
C        -1.00424507501386    4.20504718914332    5.79066451063143
H        -1.37607993953496    3.98126352078731    4.80390129160840
C        -0.49051510612531    5.45688868232271    6.07621900198830
C         1.86889887696309   10.61253708678580    7.26161433876320
H         1.91328119668778   11.09666578032511    6.28625499032112
C         2.42938968281658   11.29335542071044    8.38705496581516
C         2.29964272044651   10.74827761035856    9.68065141214477
C         2.85236298219647   11.43698339597573   10.79038469614778
C         3.52306507028744   12.62986065176684   10.58937519429721
H         3.95898917540937   13.16131419251099   11.42010963438888
C         3.64349381699588   13.16259813753799    9.30598047578952
H         4.16900538267448   14.09562758872360    9.17424100089705
C         3.10529830990164   12.51546308914019    8.22242691979419
H         3.20256436506169   12.92847599317030    7.23025442719369
C         3.25977150079058   11.37136229207857   13.13006344909514
H         4.34693224011832   11.43038332561812   13.01963350454331
H         3.01627658712746   10.69263909255003   13.94544682714894
H         2.86146944103295   12.36662354240330   13.35520251655092
C        -1.82515203400807    8.77105419968729    9.98876752642034
H        -2.86082361857910    9.09094355615469    9.80253240473291
H        -1.77291098562838    7.68075507185263    9.99586456180204
C        -1.31160254847483    9.32934811723477   11.30573341242436
H        -1.33823690068866   10.41964926006563   11.30199858458741
H        -0.28425413949788    8.99253322820779   11.45928088738098
H        -1.92572018637839    8.96871840421524   12.12592612328323

