23
CSD_code = VUYDUP | q = 0 | S = 0 | Stoichiometry = C8H6N2O5SW | MND = 6
W         1.22388588213464    2.53934090447217    8.67170747811340
S         2.33929566518619    4.21174075638326    6.88067110399176
O        -0.10518359721700    0.55595764167886   10.67992655721052
O         3.98173557308989    2.06546706860582   10.08801213585184
O        -1.46470749002182    2.95828287262086    7.10488896871754
O         2.01560732364915    0.23317224344215    6.69245194347403
O         0.28611933753318    4.88474947747077   10.52983868723931
N         3.46006025269562    5.27718496447642    9.08394189791053
H         2.89390282263726    4.71639357598047    9.70541418606801
N         3.98583275359851    6.27096890910344    7.20766226569733
H         4.13760116606486    6.33985386145097    6.21715284151390
C         0.38200703247079    1.27959544350630    9.93876388240415
C         2.97346730685647    2.26186950104221    9.58267030381070
C        -0.49078958423376    2.80801065885141    7.67340909137934
C         1.73301525191873    1.06747397064762    7.41231545321764
C         0.66410688113013    4.03800247070208    9.85598968499270
C         3.27809888215303    5.26697375984786    7.75698439374373
C         4.26977636071747    6.39723990282158    9.51768994105144
H         5.06649297461840    6.05977745045857   10.18406519498471
H         3.65718153282489    7.13486461403509   10.04773526042981
C         4.80987432559339    6.95312306684582    8.18535229495705
H         4.68735701776584    8.03538412442185    8.10477528415096
H         5.86856232881316    6.70797276113959    8.04388114908638

