63
CSD_code = VUYDAW | q = 0 | S = 0 | Stoichiometry = C32H26N4Ni | MND = 4
Ni       -2.29263081621030   -2.08318341694398    8.93421644732802
N        -1.07520866213110   -1.34445433626596    7.62107398741994
N        -2.88025070825800   -0.37844933376922    9.40707527711039
N        -3.99261469638968   -2.95893597145083    9.24262551341466
N        -1.37964348328628   -3.69557364099950    9.13868683460657
C        -0.40600577341099   -2.07094239532298    6.72539411739972
C         0.10529104008580   -1.26769640340095    5.69399424324224
C        -0.27355373937826    0.02011470204547    5.97957216022671
C        -1.01910600995263   -0.03132841142534    7.18695066485545
C        -1.65344623786965    1.03692115121478    7.82530078277388
C        -2.49242645256094    0.85637186421656    8.92994933344796
C        -2.99414003160300    1.85859892190785    9.79922582767143
C        -3.66366582853509    1.20798001748307   10.80819831118698
C        -3.57419264228433   -0.16326609777439   10.52668137338141
C        -5.17955456462912   -2.37941520834278    9.06041132585831
C        -6.21089536252361   -3.33027165961916    9.00933021989539
C        -5.61735823620624   -4.55712618361580    9.17081757626655
C        -4.22413578112731   -4.32184504157470    9.31167905017720
C        -3.22121114176309   -5.28551280488976    9.44038438983107
C        -1.86160890388413   -4.95722524635704    9.41939259486437
C        -0.77161084301830   -5.79263681378419    9.77410034568583
C         0.35827005980239   -5.01135025466036    9.72350779244112
C        -0.05848580326933   -3.73281325773520    9.32447625913104
C        -1.43120867313988    2.40000309761525    7.32751493049865
C        -0.14390242531512    2.90347621775640    7.16373608047718
C         0.05204062880467    4.18814447969271    6.69271404122716
C        -1.02513405990466    4.99935599654255    6.36061108222787
C        -2.31069856140474    4.49257888452654    6.52403220317290
C        -2.51474700517224    3.21614214086574    7.00698291746377
C        -3.60139072854930   -6.69338942375594    9.60920584332153
C        -4.48672448875167   -7.08293076896292   10.61015635947455
C        -4.83834954985880   -8.41159378644390   10.75734627625614
C        -4.32946259447177   -9.38378461966696    9.90616208713904
C        -3.44562706865532   -8.99097499892228    8.90577948819251
C        -3.07894712110049   -7.66855438191097    8.76125820063953
C        -0.82363162668608    6.38919836617529    5.84047119010433
H         0.23375871824111    6.61879195082989    5.73736762928933
H        -1.27262449720927    7.11524867430416    6.51754557663393
H        -1.30216786228154    6.50330390051830    4.86859893658011
C        -4.71327555638245  -10.82427436807098   10.04926966048545
H        -5.41225996186078  -10.96320196291824   10.86995557042202
H        -3.83063570717595  -11.43491458072551   10.23622675693679
H        -5.17678956664951  -11.18515423881878    9.13179080839403
H        -4.88050341543108   -6.34001662331228   11.28798114095120
H        -5.29837945959657   -1.31354786014818    8.97177975555931
H        -3.99978195961505   -0.96550765023553   11.10679395214590
H         0.70336850641243    2.28896265996869    7.43007028803363
H        -0.28731374595376   -3.13686730641610    6.81351657231447
H        -2.40170724206574   -7.37541029654125    7.97269667248089
H         0.57182974967729   -2.87235441208648    9.17097015991232
H        -3.51756515746238    2.83063933112445    7.11726982188548
H        -0.08741362933555    0.90336324450190    5.40060112532397
H        -4.16205593357478    1.64390606871581   11.65248696261641
H        -6.08738470531366   -5.52092773586127    9.15898562666158
H         0.67572954121485   -1.61436582376268    4.85404525585082
H         1.36756298050066   -5.30238759327430    9.94230481156132
H         1.05857837871084    4.56541457356538    6.58009873919349
H        -2.83217659155396    2.91335423591780    9.69173059576844
H        -3.04199887532136   -9.73479068969303    8.23350120382240
H        -5.52047143552608   -8.69686735945810   11.54567422468380
H        -0.84574544960401   -6.82259328725149   10.06391014656122
H        -3.16002921963003    5.11004875279848    6.26809672891428
H        -7.25288001058636   -3.11748298610318    8.86761614861607

