84
CSD_code = VUYFUR | q = 0 | S = 0 | Stoichiometry = C36H41CoO2P4 | MND = 5
Co        2.41359849714519    3.00725803480621    2.87621221118159
P         0.34267243936306    2.38392751948217    3.23401062543706
P         3.55614084218903    4.53163841080584    1.79527314872492
P         3.08870086187916    1.22320725772115    1.80675734308085
P         3.57668215132239    2.68852445909496    4.93914291831459
O        -0.21814441864382    3.35798202536571    4.41539769480785
O         3.32032913146549    5.92414282921028    2.60458476047636
C         2.24479437487776    5.84564654275728    3.47713371424064
C         1.63055783946481    4.60470815364152    3.61795422584004
C         0.47426950429021    4.56383777187145    4.39187538765459
C        -0.00049184492349    5.66850382775330    5.07687225393727
H        -0.89848536497087    5.58957388527040    5.67082535722339
C         0.68397432016830    6.86926323524811    4.96471405524763
H         0.32955297068832    7.73858606815196    5.49741494880797
C         1.79842103794675    6.97255621863656    4.14613113061244
H         2.31141009083159    7.91334758012981    4.01538001470110
C        -0.80946865402223    2.80946300532822    1.87123316045851
C        -0.30036549454799    3.31121774839831    0.68385322818127
H         0.77278522961229    3.40179277067378    0.57240083856790
C        -1.15426042661416    3.69703371662124   -0.33394588624457
H        -0.74910776015898    4.08381368802597   -1.25818639803483
C        -2.52368702953184    3.59147685011076   -0.15918404746657
H        -3.19523167577500    3.89349928641914   -0.95015239794126
C        -3.03765486939471    3.10518849800073    1.03383835297807
H        -4.10745284865966    3.03344400198119    1.17014086906804
C        -2.18500721922937    2.71395419318745    2.04879572296447
H        -2.57715640679496    2.33779533526963    2.98406389641159
C        -0.44834957884985    0.84313389884174    3.79459159735051
C        -0.71586512551324    0.60358594347224    5.13615713094924
H        -0.51136250835884    1.37476519905487    5.86326725885819
C        -1.26487473187907   -0.60356506108252    5.53154880846066
H        -1.48167588755882   -0.77960867129692    6.57565642863182
C        -1.53826861659138   -1.58534438251631    4.59394344192589
H        -1.96620649695342   -2.52731224497677    4.90461553803609
C        -1.26743958900615   -1.35531435533848    3.25386952581266
H        -1.48508279413313   -2.11746011909181    2.51911703986233
C        -0.72236617584534   -0.14914065910041    2.85745878686508
H        -0.52282130780305    0.04259938891072    1.81075918455642
C         2.98952882993072    4.96187883917864    0.11320315087583
C         3.51257974434760    4.28744893668553   -0.98637117130129
H         4.33007317391393    3.59250543525585   -0.84096971039914
C         3.00572228192243    4.51693690380390   -2.25110365659842
H         3.42082288676331    3.99630210942644   -3.10280392579612
C         1.96462909422647    5.41554519129474   -2.42829009363110
H         1.56986600160391    5.59489334217443   -3.41803939340680
C         1.43026991359516    6.07943963612295   -1.33594107685285
H         0.61613649056076    6.77710320418272   -1.47200206796720
C         1.93335216311057    5.84744263486532   -0.06853613353834
H         1.50829100881956    6.35258089242195    0.78788345924148
C         5.36147508484760    4.74724986425469    1.58978071535713
C         5.90162106596235    5.68714742125831    0.72144478884080
H         5.24867940750965    6.27550890971065    0.09271300621413
C         7.27223078594256    5.86674111119086    0.66867166978289
H         7.69296471387721    6.59713608322356   -0.00778132832832
C         8.10775149248499    5.11626342985471    1.48072669877283
H         9.17757005302316    5.26004209535588    1.43338911976966
C         7.57128834025440    4.18703931797994    2.35669652584651
H         8.22195394080833    3.60724588081281    2.99637244902196
C         6.20111873695511    4.00807346796663    2.40940762918822
H         5.75309711313269    3.29311572229021    3.08674699364680
C         2.80646651175270   -0.41334958977251    2.59323683114058
H         1.74381684442382   -0.54680011302485    2.78632695992149
H         3.33277601127175   -0.44368523338438    3.54540281328654
H         3.16744737232818   -1.21646529794311    1.95101061486371
C         2.31747818586115    0.90981169674325    0.16868686738806
H         2.70081039758736   -0.01393868114021   -0.26459405608653
H         2.53429960997451    1.74428627332594   -0.49658708316018
H         1.23800808509256    0.83825110212000    0.28971081824135
C         4.85600446248047    1.00633403194419    1.34707209251233
H         5.45131755233729    0.92139532624418    2.25412543605748
H         5.19951218252009    1.87559427372745    0.78916436058658
H         4.98530791771713    0.10772827927647    0.74407128562355
C         2.43092886968320    2.14041411208259    6.26697356575986
H         2.05960171920825    1.14418451043886    6.03023529990616
H         1.59029557007723    2.82957632707007    6.30122989542058
H         2.93250194797533    2.12824409415532    7.23467358040786
C         4.99863520355414    1.58095483440686    5.36851692616865
H         5.20605651911715    1.62861166902045    6.43675822160377
H         5.88997901464468    1.88195146653702    4.82175091422055
H         4.75680155972928    0.55463346129882    5.09852697257533
C         4.19044725461088    4.23286125580425    5.72661940751004
H         4.61547111561019    4.02114239653497    6.70753745763082
H         3.35672497025313    4.92537074673980    5.82765555567080
H         4.94442633311261    4.69493077764578    5.09137574347230

