34
CSD_code = VUYHED | q = 0 | S = 0 | Stoichiometry = C11H12N4NiO6 | MND = 6
Ni        6.56580927653442    2.13807215329519    1.07716197091359
N         7.03853369960005    1.04091176956610    2.42603398031972
N         6.03314567554013    3.26377917571819   -0.41515648069903
N         6.15465871653492    5.25970085585590   -1.70581486304975
N         6.91748517684926    5.23754095568549    0.43501794448887
H         7.03244159981269    4.77918318271817    1.33577675765846
H         7.16121462795853    6.20172450407777    0.29564042310688
O         6.61687358653504    3.48863320669400    2.51787957133830
O         7.09150070819550    3.70647716928030    4.68162281748670
O         6.69121977744656    0.49621168617002    0.03169104975168
O         7.08606039446953   -1.68542209737135    0.24732122479563
C         6.95413467090710    3.04419107023412    3.67602211602248
C         7.16789239314329    1.53230268038991    3.65644867213435
C         7.44919577007232    0.70148323948015    4.73019837198133
H         7.54941056312151    1.13436903772923    5.71306795450760
C         7.58536902526310   -0.66060739670923    4.49852671071149
H         7.79953374934211   -1.33209840688190    5.31687367175395
C         7.44027797332983   -1.15363441817731    3.20915700089136
H         7.53153633566870   -2.20300214150146    2.97690306802372
C         7.16288773300968   -0.26212290317847    2.18358207324926
C         6.96438234080732   -0.56525110551229    0.69589955190540
C         6.36486266216433    4.57451666810275   -0.57230948526207
C         5.44232226534035    2.66400143221067   -1.45093630947319
H         5.19753771512419    1.61680814581809   -1.32647326894440
C         5.17550573513371    3.31985370698339   -2.63818516562289
H         4.69700539419471    2.81740075498817   -3.46031838222661
C         5.58035250627869    4.64813255050809   -2.71386901872296
H         5.43980487478061    5.24203403767858   -3.60744854262941
O         4.25025492448328    1.86665310476051    1.78017515778828
H         3.66133121291827    1.93587193021001    1.02415515285684
H         4.15199680912026    2.66922325213925    2.30436862467704
O         8.82633342173992    2.54108700376498    0.22750263024160
H         8.79947185593916    1.84964525792427   -0.44457798381119
H         9.48205682864059    2.28222993734971    0.88106300383739

