57
CSD_code = VUYJUW | q = 0 | S = 0 | Stoichiometry = C26H28O2Zr | MND = 12
C         5.36017213997251   11.98131259702995   -1.83506213094815
H         5.59762936218310   11.51988845062840   -2.78535743641123
C         5.85840904549171   13.21333838661901   -1.35998594856114
H         6.51130845157916   13.88425400139618   -1.90668540194583
C         5.17366755805737   13.52663412767508   -0.16384559420639
H         5.22260822469576   14.47179386154545    0.36327829225142
C         4.27603440827770   12.47789179626902    0.11445811697926
H         3.51512669110960   12.47617191949734    0.88491595285660
C         4.39058197337318   11.52093322511954   -0.92107621269941
H         3.73576950187670   10.67197874942956   -1.06528332771758
C         8.04956097667510   13.50007126446134    0.83681893977486
H         8.01230505834723   14.45502344652231    0.32667948798143
C         8.93345090519303   12.44504714425252    0.53894153810682
H         9.69365848938447   12.44736819119712   -0.23219079295080
C         8.80754504600239   11.47138970837903    1.55749731176075
H         9.45156324408193   10.61171015870951    1.68599377657634
C         7.84455240111859   11.92777400213880    2.48043071547389
H         7.60208130673069   11.45267430374721    3.42267743157137
C         7.36179708847389   13.17431251184839    2.02784186643929
H         6.71797315619294   13.84369338085877    2.58701461874318
C         8.62399538366975    9.80058058965570   -1.07282367349362
C         9.43228696151024   10.34197981519229   -2.09264167698773
C        10.72508618127535    9.87808080619912   -2.26402633622440
H        11.33841554800961   10.30049583109993   -3.04750518508269
C        11.23637836600636    8.88515413751141   -1.44658046561791
H        12.24657953535315    8.53209255308900   -1.58758502565205
C        10.44291389568933    8.34661381643056   -0.45029524966383
H        10.83702913705214    7.56745546597223    0.18712871755568
C         9.14209420384039    8.78426090270312   -0.24780753821817
C         8.85686912762395   11.40874958492903   -2.98010937631085
H         9.63908074373573   11.88815890341892   -3.56414408304015
H         8.33572048753504   12.16158509518723   -2.38011163866138
H         8.13152985603912   10.97022942022279   -3.66711910710364
C         8.28951015944660    8.16366573161891    0.82434443332737
H         7.78554755735864    7.28108467916126    0.42699067319915
H         7.52791299007500    8.86690907310971    1.18068747667352
H         8.90735273352988    7.84278709868319    1.66188294150192
C         4.55142744011850    9.80488882238559    1.68275456334925
C         3.75162081748273   10.33982548492607    2.71264894256674
C         2.45267029146464    9.89113174472386    2.87745223495673
H         1.84590258527948   10.30845199021201    3.66874200790887
C         1.92702248877852    8.91948755488138    2.04363776157746
H         0.91218426106788    8.57800343027382    2.17979554651706
C         2.71207476625040    8.38717895800949    1.03741761060877
H         2.30668965503831    7.62452719971973    0.38722666079403
C         4.01865742246163    8.81025666539198    0.84092597543676
C         4.34310463789973   11.38309459051947    3.61730953646989
H         3.56941003472805   11.85863086389527    4.21565848740305
H         4.86799791826503   12.14250512926699    3.02892061150230
H         5.06838773656516   10.92385510902817    4.29069755411123
C         4.86146000684608    8.19657895014400   -0.24292255765827
H         5.34980076913400    7.29773066658106    0.13700039674699
H         5.63513837555560    8.89373622188431   -0.58478438260782
H         4.23898214138682    7.90302261080044   -1.08701044082953
O         7.37116812018709   10.24680145414644   -0.92832550728132
O         5.81021173416809   10.23624384804885    1.54493722278487
Zr        6.59869090074600   11.46710397364287    0.31867168637711

