54
CSD_code = VUYKOQ | q = 0 | S = 0 | Stoichiometry = C26H22AuClNOPS | MND = 2
Au        3.15656404395218    1.53554708585737    3.02131875687455
Cl        0.66950050802421   -3.47165310836019   -3.88220738676493
S         2.88482978595356   -0.41036666703049    1.76511707029834
P         3.42141998022590    3.46818121021632    4.16612017674646
O         3.34984083897046    1.70394031616620    0.39801711018373
N         3.01734427131520   -0.09872403650955   -0.93014640996047
C         3.10225998855803    0.37729863493819    0.23802870207603
C         2.87139397821795   -1.42855817529475   -1.25617388631673
C         1.94538854854171   -1.75823569680887   -2.24786192122554
H         1.32020228904269   -0.98758238614969   -2.67044736805183
C         1.83209571338628   -3.06985244701058   -2.65967211645522
C         2.62637642976100   -4.07172591864432   -2.12746006046525
H         2.52175495035774   -5.08998592811481   -2.46692274102753
C         3.55430659755003   -3.73378822921703   -1.15586478037482
H         4.18321393280052   -4.50347301117542   -0.73292425133263
C         3.68194799749455   -2.43070728845570   -0.71981907345690
H         4.40559063643742   -2.17306448822634    0.03795283938775
C         3.55951980367542    2.45550775033806   -0.78534597898752
H         4.39156515527195    2.03965849543361   -1.35640796250828
H         3.78438816990074    3.47030991603883   -0.46076002838767
H         2.66344745158480    2.43769165323277   -1.40895059771626
C         3.71918101382915    4.88313688801606    3.07183530327322
C         2.88300148309216    4.98226174620603    1.96179594556941
H         2.11363346519959    4.23492770428057    1.81323238668695
C         3.04813072007226    6.01776401952060    1.06241350891416
H         2.39998984353057    6.09580468636545    0.20200803085862
C         4.05460221459470    6.95118071508350    1.26131724939318
H         4.18984604898345    7.75587873993671    0.55423197984977
C         4.89037510063027    6.85043000377826    2.36137956573111
H         5.67418977095605    7.57793323724306    2.51284574279199
C         4.72777797693670    5.81889336586146    3.27017916998291
H         5.38118268968010    5.73893514658709    4.12817755140393
C         2.00277793524257    3.98849427353158    5.16672274155784
C         1.20700001180353    2.98678643393787    5.71496073056036
H         1.44863421702664    1.95052261151760    5.51359970467539
C         0.12007339515990    3.32245073107713    6.50069928597357
H        -0.49635262237021    2.54629604950546    6.92867962701127
C        -0.17888974789147    4.65580878233415    6.73262361311366
H        -1.03014204414110    4.91821445099037    7.34271264121612
C         0.60786213286277    5.65445205741188    6.17998960713216
H         0.36808194038114    6.69226083454179    6.35865898976692
C         1.69946063989783    5.32707263356861    5.39654455098550
H         2.31450929815766    6.10216587153646    4.95973359052973
C         4.82118270322806    3.48895726141680    5.31602207823792
C         6.03263363206379    3.01442245964152    4.81529788769192
H         6.08355132889053    2.68282579871551    3.78532365016613
C         7.14695121352498    2.96956428939126    5.62970460036323
H         8.08626381326674    2.60548435119543    5.24118761280349
C         7.05306535754155    3.38248424341722    6.95060042192198
H         7.92151780510159    3.33966371692775    7.59058951395594
C         5.84644716593076    3.84000837015459    7.45365297707010
H         5.77467539731269    4.15391949944498    8.48449744737666
C         4.72633771837920    3.89454004541687    6.64183518710650
H         3.78339731011020    4.24834130022714    7.03495701378029

