33
CSD_code = VUYMIM | q = 0 | S = 0 | Stoichiometry = C12H14Br2N2OSZn | MND = 5
C         4.75270655430513    1.27603454180561    7.61655544294130
H         4.76131643908580    1.49466883032640    6.55736145399374
C         5.46583473755365    0.20872535635736    8.13979184210813
H         6.03850639890302   -0.43273293401698    7.49041528485716
C         5.42055781384115   -0.00132901316269    9.50798831289696
H         5.96422050767685   -0.81778030807564    9.95931679814424
C         4.66911987795001    0.85325436658892   10.29733049149915
H         4.63577448921078    0.70984907690644   11.36468610588246
C         3.97370591753727    1.89708478425946    9.69071842215352
C         3.14708692193868    2.86128044292068   10.43398698184117
C         2.82948820205706    2.71378882326249   11.78282266079441
H         3.16793630663833    1.85590320339418   12.33958101506171
C         2.04871230701933    3.67506483821555   12.40113433062960
H         1.78666083011384    3.57356383953204   13.44361026782141
C         1.60624190133693    4.76009624091444   11.66225030743936
H         0.99833813347165    5.53158604647717   12.10613055528078
C         1.95205900812546    4.82484851127907   10.32219907022687
H         1.61790505013159    5.63077169598830    9.68559973674351
C         1.18776698713514    6.62577171410963    5.08193860728862
H         2.25167624659825    6.67651178798168    4.87520768036447
H         0.88497224636967    7.45631802902302    5.70821226758340
H         0.63240179636756    6.60750093177177    4.15223513591430
C        -0.90893292310091    5.30664388678325    6.18582880739957
H        -1.08255243020642    6.22686128018975    6.73059431449878
H        -1.28133954939987    4.45695498483031    6.74846406327581
H        -1.37327835617418    5.33237332693396    5.20765716967223
N         4.03361402254559    2.08621470384008    8.37117585690810
N         2.69431492994226    3.90478763640680    9.73311279875874
O         1.43345883370882    5.32568959564267    7.33317459921101
Zn        2.65030300097419    3.60084827699441    7.61080097611830
Br        3.89112671369882    4.19541817281554    5.67322673921775
Br        0.73247510031125    2.19489423745742    7.34153343463635
S         0.88562198432013    5.05883309223739    5.96625846886107

