54
CSD_code = VUYWIX | q = 1 | S = 0 | Stoichiometry = C22H25ClIrN4O(1+) | MND = 8
Ir       -1.11432822031440    7.66283570779022    9.93554620607988
Cl       -0.32190131112401    7.40309070150654   12.12892520445135
O         3.63423672582485    6.86798386292837    8.74349035830159
N        -1.19444034903233    5.60176292089319    9.96011761994067
N         0.79607995598737    7.13727177944972    9.39508776362527
N         1.72267239770441    8.07428527115501    9.15308410444551
H         1.44811220575110    9.05329620555176    9.26222568715503
N         2.91914647786494   10.32287832774471    8.89104054732495
C        -2.31026471339021    9.48122019437755   10.54258099655118
C        -1.35111740288993    9.82701698924469    9.53894478433658
C        -1.70080151847487    9.12050993419241    8.32865214196088
C        -2.82202513167686    8.28852919663785    8.61142474411986
C        -3.17255327165464    8.47342946625411   10.00046805093312
C        -2.46224624334290   10.10343892992175   11.88409549455135
H        -1.73999911057878   10.90018354530221   12.03135897744186
H        -2.32348669209671    9.36625632166008   12.67356541314906
H        -3.46839943474575   10.51059622715990   11.98192691336102
C        -0.36242342735371   10.94354369230046    9.65060800857536
H         0.34049139189480   10.94334759163624    8.82170067441041
H         0.19377380492969   10.88193756366505   10.58409247750741
H        -0.89253707401029   11.89678453048053    9.64051916946234
C        -1.09851621973453    9.34984601675563    6.98393314209459
H        -0.04850068936566    9.62462410255476    7.05312533676948
H        -1.62677241238216   10.16682811954830    6.49030470561723
H        -1.18580869703972    8.46805998274876    6.35414296638521
C        -3.60449670844395    7.50230823486886    7.61567550423186
H        -4.06651602837374    6.62916138875617    8.06980096749569
H        -2.98032806882333    7.17343645832002    6.78890024546103
H        -4.39924019854856    8.12917710006771    7.20884386087119
C        -4.40954525292746    7.97896916111533   10.67679821217230
H        -4.20705297087705    7.71912981374982   11.71376840239500
H        -4.83049462752176    7.11678987797953   10.16629337617485
H        -5.16202661873678    8.76883460023255   10.67319792506024
C        -2.23576431567914    4.86151825566343   10.32905012687825
H        -3.15647135448882    5.38707751643933   10.53563220915794
C        -2.16510150133026    3.48677699566318   10.46057401733619
H        -3.03804000664640    2.93082641746100   10.76070260215035
C        -0.95841067931892    2.84386203928634   10.20639046474352
H        -0.87484484562022    1.77331377777712   10.30557209104042
C         0.13276270493193    3.60456096063470    9.83643964096813
H         1.09413453695770    3.15571299822575    9.64610711791426
C        -0.01060473727178    4.98878986811571    9.72380262527351
C         1.07244600302294    5.87098680418469    9.39333572710628
H         2.06680114427900    5.49337007965138    9.19304708429531
C         3.07059765166705    7.92603704739849    8.88273917095395
C         3.71901837219408    9.26050993674628    8.76486826146944
C         3.46013986360972   11.52281225815361    8.80444789930751
H         2.77697643141909   12.35429824702818    8.91560184822931
C         4.81789832909807   11.73068427614320    8.58700465875737
H         5.21049562419577   12.73275641966356    8.52624216707150
C         5.64441235919350   10.62707215869437    8.45149806903013
H         6.70292451303813   10.74806408675127    8.28077206294419
C         5.08646745095188    9.35989291882200    8.54121861556247
H         5.67647188929258    8.46231312098023    8.44691355740268

