64
CSD_code = VUYXUJ | q = 0 | S = 0 | Stoichiometry = C30H26CrO4P2Si | MND = 6
C         2.67399936169211    3.97473756529497    4.12899128624955
H         3.27636072099021    3.38342912797954    3.44625722840174
H         3.33099991941473    4.67999696161313    4.62905217663565
H         1.95697810797278    4.53029412637379    3.53279976699296
C         0.96198739001015    1.35557485061218    4.42504414689301
H         0.18205628390482    1.70899149451365    3.75733705592045
H         0.50577378570370    0.66745149173656    5.13315287537147
H         1.68463477778820    0.79785615199706    3.83659666810177
C         3.76959631431999    0.41604712360540    6.34618106859636
C         3.59339686042872   -0.82349012807920    6.95016763207824
H         3.03388951989318   -0.88571757558085    7.87551594661090
C         4.13460602268770   -1.95898351379633    6.37222782048999
H         3.99796543636611   -2.92080569833635    6.84370799342055
C         4.85048761581975   -1.86071909943296    5.19094870529661
H         5.27235618138127   -2.74652166431249    4.73965729570253
C         5.02830168375896   -0.62580136336814    4.58429242034443
H         5.58758843720361   -0.55251135675953    3.66261468830998
C         4.48802952670861    0.50972391944024    5.15559737785532
H         4.62415790016435    1.47885753809049    4.69272476426528
C         4.38717303951852    3.02564525323996    7.25650296167688
C         5.71182095437633    2.61110376774096    7.34606955588374
H         5.95462413486981    1.56066159294556    7.26186617068172
C         6.71427608805527    3.54349866205305    7.54891320015111
H         7.74186182449592    3.21711397461475    7.61666382823442
C         6.40576918185925    4.88746301782105    7.67459469563562
H         7.19179494668570    5.60995421432923    7.83615880841970
C         5.08451213162768    5.30408991066811    7.60627149923611
H         4.83794039535696    6.34999558301949    7.71813207432005
C         4.08151509534210    4.37830737369157    7.40362959055903
H         3.04395927710771    4.69626549326133    7.37132584628601
C         0.28478515063904    5.08163149883089    7.38582422343595
C         0.79318386735579    6.04419098831252    6.52204852653594
H         1.24286773444011    5.74811675940062    5.58473131854016
C         0.73237397116763    7.38304368048901    6.86853314482152
H         1.13438933133907    8.12864193833240    6.19758642294590
C         0.16302092308072    7.76740125513330    8.07069313030473
H         0.12150242825883    8.81297425478880    8.33738467046996
C        -0.34832521259782    6.81076065066468    8.93413445553001
H        -0.78896563433244    7.10938587636680    9.87358211742894
C        -0.28358712024586    5.47289245307038    8.59617941929779
H        -0.66371014417208    4.71240375136700    9.26858298309678
C        -1.30442748184845    3.07971162445248    6.33239648607355
C        -1.66181352818714    3.79997525563632    5.19547062555666
H        -0.95867540024337    4.50140190188616    4.76518929602681
C        -2.90776541358235    3.61799788105215    4.62751353672099
H        -3.18528161295132    4.17644292489038    3.74512061916559
C        -3.80168338809144    2.71775958687872    5.18806871293010
H        -4.77447462917647    2.57745766200974    4.74062516673754
C        -3.44980381860723    2.00089159406030    6.31939198455940
H        -4.14747230927908    1.30180954264713    6.75600313287826
C        -2.20292451659383    2.18043172787779    6.89301358874062
H        -1.91674355707881    1.62843314218864    7.77982645578452
C         2.11095576317365    0.73445440098941    9.94309880537507
C         0.50933359525302    0.35509105705442    7.95147262332324
C        -0.15878203881278    1.92797017224846    9.90541777119478
C         2.01858074334971    3.27530014462932    9.66902626192698
Cr        1.26731081660114    1.85104853767647    8.74337619212175
O         2.56370813824170    0.04308903926201   10.75191499255941
O         0.02090134196027   -0.62855491666982    7.58590418519675
O        -1.00736771116647    1.92760637283367   10.69320773485958
O         2.45286668635256    4.09805664369677   10.35090445288681
P         2.98964370953849    1.87826039202305    7.08849732267401
P         0.34177984015618    3.28222325462777    7.08869889776761
Si        1.78928656052184    2.80059015634434    5.36638559391551

