73
CSD_code = VUZBAU | q = 0 | S = 0 | Stoichiometry = C39H29MoO3P | MND = 8
Mo        1.67520987917705    5.19522545178217    1.27137016279438
P        -0.69119865959330    6.93646013888181    1.34531740731225
C        -0.01081497845111    6.07769212752371   -0.04576250744736
C         1.27545790929589    6.48715807163489   -0.57050034235496
C         1.93986950719621    5.34577671308769   -1.05502964379452
C         1.12651849404791    4.20568774579113   -0.75263031737652
H         1.30183353232964    3.20893884642875   -1.13748252234992
C        -0.04041572639468    4.62481355347022   -0.10317423757876
C        -1.18115930296569    3.75049524818665    0.17767034180144
C        -0.98435559813381    2.53619945034023    0.83398203752947
H         0.00956715173040    2.27382241001100    1.17329940107156
C        -2.04937857517375    1.68980652931406    1.07374635665331
H        -1.88475714733064    0.75617235387223    1.59066333205659
C        -3.32512813172897    2.03690521850318    0.65844887341655
H        -4.15686492374586    1.37531687465175    0.84898509458981
C        -3.52903348393938    3.23430825309693   -0.00605978322651
H        -4.51960518210865    3.50710310649651   -0.34111782581865
C        -2.46565573470825    4.08399015391243   -0.24969213761667
H        -2.62899877919915    5.01094526473591   -0.78380535690702
C         1.72587595456371    7.87167868758706   -0.73863531203417
C         0.88887636676167    8.82634447870887   -1.31434152435162
H        -0.10184490540146    8.54500861733603   -1.64329961883413
C         1.32312691207644   10.12928215305110   -1.48422523930418
H         0.66080161559744   10.85836393506913   -1.92935647928283
C         2.59768476253667   10.49480032146435   -1.08725486506930
H         2.93346150325949   11.51314347465656   -1.21624010906688
C         3.44328378661704    9.54652420820771   -0.53296838593127
H         4.44138641537987    9.82375367122955   -0.22867832405537
C         3.01637618159982    8.24449074353414   -0.36449785262751
H         3.67878417554662    7.50597156340410    0.06661279968167
C         3.15079555437475    5.30302840301127   -1.87833953355589
C         3.35958002206490    6.23810110364891   -2.89083067854276
H         2.62430456845430    7.01085747629327   -3.06762188945757
C         4.49674460855175    6.17803398204311   -3.67414011081496
H         4.64748726752756    6.91116105051236   -4.45337577323185
C         5.43643458882176    5.18278719911378   -3.46580375815417
H         6.32473298703765    5.13910230278663   -4.07847945623925
C         5.23217530258916    4.24343605445949   -2.46826897312703
H         5.96226921251679    3.46555744981363   -2.29956410943934
C         4.09835637839435    4.29985320937746   -1.68117616742833
H         3.95246861624351    3.57753397618120   -0.88865257263733
C        -1.81593624421190    5.93455822953831    2.35945304980819
H        -1.30932273020986    5.08535469508418    2.81240155729520
H        -2.63019608110317    5.57856710310245    1.72767756188710
H        -2.21917472490124    6.59244781856085    3.13135840240731
C        -1.91667853677254    8.11690338131988    0.65348352460657
C        -2.46114315544092    9.12474043263101    1.44150748891113
H        -2.11337567941342    9.25740036904629    2.45751133081163
C        -3.43433887260926    9.95931252703635    0.92404408927103
H        -3.84979097003969   10.74520036870820    1.53739217406559
C        -3.87641439386571    9.78928226835695   -0.37857964656512
H        -4.63373083563499   10.44511268606523   -0.78123207364185
C        -3.34872632247672    8.77775342078281   -1.16336926080098
H        -3.69565196098473    8.64017137263402   -2.17718141059810
C        -2.37396033618233    7.94379442001892   -0.64617332437372
H        -1.95122449845417    7.15111275161994   -1.25329528901515
C         0.23034549437329    8.02314104083672    2.47373362269117
C         0.67341927982634    9.26545808356174    2.03389905553631
H         0.46178214454783    9.59012602025075    1.02526257771595
C         1.38077397748412   10.08665530311920    2.89416115540938
H         1.74344458344378   11.04011082597448    2.53991180727869
C         1.61693335083480    9.68894723203533    4.19804418048998
H         2.16813009139863   10.33108746009021    4.86805352518357
C         1.14850206772563    8.46181242367568    4.64450877181481
H         1.32731938972319    8.15194275482293    5.66296293443026
C         0.46660074473456    7.62275147307676    3.78578336348999
H         0.13101081875249    6.65498889970193    4.12871456949140
C         2.69408591203586    6.45223115086058    2.30586675122419
C         3.18014856526008    4.10293791464934    1.76094961049044
C         1.05567765488501    4.45511511389984    2.92506015426600
O         3.34826206645355    7.20397795262584    2.87678242840578
O         4.07420918561823    3.43933776903941    2.04069148099122
O         0.65916788977740    3.97633516407016    3.89622543775896

