34
CSD_code = WABBEI | q = 1 | S = 0 | Stoichiometry = C12H14ClN6Zn(1+) | MND = 5
Zn        0.35585630027119    7.45245683873057    9.85709726845855
Cl        2.40698173764946    7.37969375740732    9.18501019146300
N        -0.22732002091416    6.01882802654401   11.18197719187941
H        -0.79830820962494    5.19385928607300   11.03756582254823
N        -0.08664566211217    5.35374209716281   13.39991412275622
H        -0.63569517956936    4.52400787948376   13.24200188796766
H         0.21215722664325    5.54279070445822   14.34045012403957
N         0.91609751485267    8.35139592073470   11.74352714166811
C         0.18622783149922    6.18610542409867   12.38772642230465
C         1.02049850792814    7.38221433010354   12.65559851664909
C         1.88362012024916    7.48104960915641   13.74069417546469
H         1.99912024158594    6.67131448963649   14.44396670719749
C         2.64404138561913    8.63275614841918   13.88453117080258
H         3.33143900549280    8.73099854254660   14.71042735613810
C         2.51171150926156    9.64272319911317   12.94692033845532
H         3.08306492185359   10.55333298016609   13.02334536457875
C         1.63804919762240    9.44976760623812   11.88608332603170
H         1.52080622004758   10.19848833676648   11.11590784028803
N        -0.79518115993291    8.94966507773150    9.09353938103299
H        -1.11001706504703    9.81192223418447    9.52348457043528
N        -1.92409472082364    9.65703111204650    7.19476579784700
H        -2.21284723556233   10.52185074765155    7.62323647397114
H        -2.24370562982467    9.47108800575093    6.26048328692728
N        -0.36562683343349    6.55507653245426    8.02706153638472
C        -1.17639857674962    8.78129630699501    7.87726204221500
C        -0.74933919864543    7.53200257458669    7.20215782983518
C        -0.70234075498332    7.39004957802482    5.82015914865548
H        -0.96663106045900    8.20183240666863    5.16082618798189
C        -0.25819458156286    6.18786659488705    5.28831930505021
H        -0.19974586380959    6.05483422969578    4.21913471982491
C         0.11588733714913    5.17227045432442    6.15159754067195
H         0.46542469896675    4.22342695967026    5.77876271209653
C         0.05193082421778    5.40884496814295    7.51750121381707
H         0.35787717214980    4.65601704034762    8.22966328455834

