55
CSD_code = WABCUZ | q = 1 | S = 0 | Stoichiometry = C26H18Cl2CoN6O2(1+) | MND = 6
Co        8.34795325726141    7.80617904057471    8.20038169801125
C         8.69037797740921    8.18480741147997    5.29611452847882
H         8.76327665605043    9.24620853558287    5.49060380867704
C         8.74012058095027    7.70804388454330    3.99820284555003
H         8.85313626805418    8.39785569828082    3.17857829814456
C         8.63611195746779    6.33904578816716    3.77868491708701
H         8.66703885734545    5.94063698586273    2.77682784612238
C         8.48921990742197    5.50029165613680    4.86493074758515
H         8.40035224792681    4.43286785658085    4.74376249107559
C         8.44562368197653    6.04648060863525    6.15008701591323
C         8.27661075047448    5.28460365551403    7.35112001523552
H         8.14958948736215    4.21134243105801    7.36769373433424
C         8.00710813760228    6.60555707717918   10.49002726792301
C         7.80454436146567    6.33573440346242   11.90690956141215
C         7.71162183141881    5.02069323552750   12.37295561291179
H         7.78739785759261    4.20942476109137   11.66737655609754
C         7.52351034022828    4.77459586567850   13.71555823902947
H         7.45055197169731    3.76352206897174   14.08338328442085
C         7.42466058765549    5.84117585496545   14.60545816509740
C         7.51237193018920    7.15451161256038   14.15240955198102
H         7.43078433209352    7.96980796744413   14.85348449969464
C         7.70118522509638    7.39836928540621   12.80957579944813
H         7.76868869189620    8.40954300135270   12.43837851692019
C        11.18480155429328    7.14693099575383    8.66286218433503
H        10.89861323465615    6.10438472636966    8.63322252441593
C        12.49809583238553    7.50340374833340    8.91304370527696
H        13.23824890656839    6.73829785217834    9.07790129783554
C        12.83451228730546    8.85187593761722    8.95260593622750
H        13.84976749129770    9.15784640332135    9.15028667808721
C        11.84595712023978    9.79085275254073    8.73785864143473
H        12.05835095772926   10.84737584448917    8.76300773912775
C        10.53880225649035    9.36388111900340    8.49108366755812
C         9.42566525133717   10.23883876511572    8.27443290627224
H         9.49654993795074   11.31710486431028    8.29934911792867
C         6.19366142505820    9.22675977830673    7.82699276221834
C         4.81011657185654    9.63591886906738    7.62759659502227
C         4.48241613112702   10.98812927297122    7.48850734431516
H         5.26850743693551   11.72399155235212    7.53567285393222
C         3.17118539505315   11.36554892819849    7.29682834722784
H         2.90951562209880   12.40613717481102    7.18927679998652
C         2.17429593940246   10.39459097777237    7.24368237601673
C         2.48840290254742    9.04572896279126    7.38408190558002
H         1.70483781537668    8.30599856674438    7.34372319985209
C         3.80021539581678    8.67045387689978    7.57533669442499
H         4.06364637447378    7.63008382497335    7.68931073125073
N         8.25726684392508    6.01331431386331    8.42287260112033
N         8.08302476515515    5.57344548149155    9.64638249103539
N        10.22521207615192    8.04263551985214    8.45471591848004
N         8.30952171836966    9.61023094350340    8.07657686515678
N         7.13785507397832   10.16890896922762    7.88677252233690
N         8.54930996759351    7.38624787967187    6.34915053048282
O         6.49320310754961    7.99145701998764    7.93744980795668
O         8.11327471844686    7.80510973490945   10.06853227939613
Cl        0.54224479238645   10.86556186705621    7.00435894084897
Cl        7.19098419980911    5.53365479046251   16.27681903370398

