58
CSD_code = WABCUX | q = 0 | S = 0 | Stoichiometry = C22H31NO2PRh | MND = 8
Rh        4.63183347305602    3.06964198905919    1.90744266674480
P         2.79434514301150    4.32535245412713    1.32607310793247
O         4.75327895703299    2.09024392448400   -0.74944697038208
O         6.13295619934428    3.78658386187361   -0.38961074960794
N         6.51817674538891    4.70334405117374    0.55451609662922
C         5.16780519725513    2.91995326555734    0.00977460904763
C         5.92910311025718    4.61248895747248    1.67779601480976
C         6.32056125476653    5.58678972498111    2.70354766728786
C         5.69136056038780    5.61691746452489    3.94617746282823
C         6.06437286535989    6.53845421793618    4.90662561897429
C         7.07629159036550    7.44550811109961    4.64207236439879
C         7.71101783980882    7.42575432681652    3.40912144360593
C         7.33952453809028    6.50874448220433    2.44651970872575
C         4.23941726952547    1.97757766757263    4.03872987516352
C         5.60106464257297    2.22571121812261    3.88043266523161
C         6.03207737419612    1.55966528904260    2.68556353868924
C         4.94004298710812    0.76830382429136    2.21785617175715
C         3.82334356693110    1.08509958848120    2.99391422816921
C         1.50119502922134    4.63916644825226    2.64855555101532
C         2.15108816474645    5.30404338113938    3.85957513054027
C         0.78551680393333    3.37057682835320    3.10107349823507
C         3.17268764144337    6.08411099544071    0.75087031731721
C         3.64214562185811    6.09421657298340   -0.70400119783121
C         2.09436869688714    7.15173809056570    0.94034091840330
C         1.84420542697687    3.56312886390936   -0.09868998366487
C         1.68249376892494    2.05380228090227    0.08175657851803
C         0.50443537816876    4.21064031851295   -0.43673251225055
H         4.90539928374851    4.90544346871646    4.15509063067801
H         5.56598966613675    6.54734037153161    5.86541973734860
H         7.37130531485534    8.16353305625062    5.39309744410994
H         8.50229316608097    8.13090761770909    3.20040239409342
H         7.82583651693651    6.48337160139054    1.48470468310171
H         3.63446715951304    2.26510120771245    4.88579229443325
H         6.24312488281633    2.76697140465276    4.55830251871162
H         7.06563200343835    1.42421226083812    2.39668695894798
H         4.98089247055431    0.04848323008987    1.41531766931965
H         2.86266059707386    0.59511669019528    2.94251614740914
H         0.76971187588686    5.32276334943194    2.20672685015883
H         2.81726780849809    6.11502532019386    3.57350171321130
H         1.38650332462468    5.70222519187267    4.52583105023663
H         2.72816157414878    4.56762802634162    4.41464670792542
H         0.08799110641748    3.00830696710153    2.35136873006907
H         1.50381625835115    2.58396958366109    3.32075018941859
H         0.21835572335254    3.57587658096676    4.00880339256192
H         4.03062889068259    6.36757782815236    1.37652287189073
H         4.34273667553234    5.29016344980235   -0.90877419363375
H         2.80136618561359    6.00145725155644   -1.38752937490180
H         4.14775652618080    7.03429072337052   -0.91718736070688
H         1.85038044821939    7.31268470327643    1.98592017207850
H         2.47437511213221    8.09265852651370    0.54407289948628
H         1.18179019984134    6.91342172293765    0.40164256570656
H         2.52509677658068    3.70239617286965   -0.94765452704473
H         2.63226910138702    1.60114485565445    0.36057107251488
H         0.93782984779779    1.80921877392052    0.83330087376268
H         1.36952359768744    1.60964698499271   -0.86136940366741
H         0.61645611475825    5.25755013129587   -0.70287656416972
H         0.07177401661390    3.69642900176061   -1.29409365456711
H        -0.20090207207569    4.13312574636613    0.38674169122980

