43
CSD_code = WABDOU | q = 1 | S = 0 | Stoichiometry = C16H20ClN2RuS3(1+) | MND = 6
Ru        3.53612036513877   22.97146165426019    2.46853041470716
S         2.79093801007288   22.76925197384897    0.23103912510563
S         4.52063052311261   20.84447717091857    2.20008048722693
S         1.54000193402577   21.88091596219679    3.13532624007022
Cl        5.55463336325854   23.87300912801320    1.70227115118200
N         2.94041237133039   24.86443484117311    2.71768844579461
N         4.20308747598375   23.28346532871392    4.32464908854742
C         2.38753395223215   25.63505024492375    1.78561271754711
H         2.14798357134783   25.16149578211681    0.84146093956575
C         2.14186972581058   26.98319324817828    1.96486177336420
H         1.69650811876180   27.55888373929476    1.17030733365371
C         2.49095198333328   27.57017890398323    3.17319852662831
H         2.31644642501714   28.61923837932125    3.35046943216207
C         3.08943404717350   26.78293088673566    4.13831786205384
H         3.39488628120249   27.21763903233164    5.07508734656703
C         3.31504282830596   25.43050988168084    3.88398705367404
C         4.00919364843103   24.53039937464805    4.80186506760356
C         4.48171630733620   24.90553078783021    6.05926730589750
H         4.30849411170071   25.90195423927941    6.42925616708269
C         5.18429838250092   23.99531698629658    6.82549565481412
H         5.56379167831954   24.27118250297487    7.79614513395808
C         5.40102993699237   22.72453131785575    6.31029962884633
H         5.95978675718556   21.98530489129599    6.86018405487442
C         4.89176749277657   22.41733018500586    5.06303373539663
H         5.05766217181743   21.43624334166282    4.63459924504987
C         3.40912746229600   21.13958973136798   -0.36321287542813
H         2.60103240423198   20.41560001988243   -0.26570056979452
H         3.64071813227792   21.26915257911347   -1.42095913108628
C         4.65596520270423   20.72526473555902    0.38506629229217
H         5.47840765546808   21.41259507464540    0.16971882612180
H         4.95361864550240   19.70630373305969    0.13619284705497
C         3.17619164906030   19.63362186196662    2.59037156729778
H         2.71762594815102   19.32626848537617    1.65252425839071
H         3.66213426988737   18.76586301973380    3.03739147436906
C         2.16688320808991   20.20708417857670    3.56371096162781
H         2.61232910913453   20.34412200649731    4.54986334836544
H         1.29620623137159   19.55690853886829    3.65689792315293
C         0.64352947758524   21.48540730833801    1.56548951401549
H         0.86104713186616   20.44774615915788    1.32103901283805
H        -0.41770597555762   21.57360153292011    1.79959711445258
C         0.99654680499626   22.42286135712774    0.43146551204329
H         0.55537513314620   23.40567482663309    0.60141424890432
H         0.63494604662065   22.03500506663445   -0.52130425599193

