72
CSD_code = WABHAL | q = 1 | S = 0 | Stoichiometry = C20H45N4O2Pd(1+) | MND = 4
C         4.81055448370472   12.90371545767643   18.78116594161924
H         4.96792935271934   13.95535512387720   18.52064991282424
H         3.82456246539602   12.81882164238356   19.24370805324274
C         4.81902035036131   12.04495424882885   17.51461730356064
H         4.04084329528414   12.39806054735979   16.82484070107422
H         5.78280291143473   12.13275477993836   17.00183273827096
C         5.04302285221766    9.64955723195669   16.90499108570503
H         5.99220009671360    9.97722504051239   16.46720434202964
H         4.31590754051229    9.54761031259437   16.08816871180580
C         5.21908116902600    8.30134474846983   17.60713339446691
H         4.24725599390392    7.99088046163158   17.99727200489474
H         5.54659255873419    7.54526822262612   16.88642879635615
C         7.18661976558639   12.90773796969931   19.41273461087432
H         7.43466598988174   12.52131054425835   18.41303492563892
H         7.87848674647003   12.44475786816668   20.12585546445113
C         7.43469678945977   14.41941607214181   19.43178655426624
H         7.22772466070247   14.82153790586102   20.42407760407066
H         6.79339984588574   14.93551565139435   18.71467310891381
C         8.89246067474755   14.71877095154881   19.07782958312667
H         9.11396545862891   14.32926203887253   18.08170792405147
H         9.54841156155310   14.21028786402544   19.78666566598483
C         9.17613841470801   16.21508239775153   19.10957056608147
H         8.98782015498496   16.61982378460855   20.10093379223137
H         8.54578563781444   16.74271621739888   18.39728726243197
H        10.21418932105648   16.40745825014213   18.85428022354097
C         5.43491559668736   12.86421996661541   21.12184813246883
H         5.23733769095192   13.94188494173907   21.14742141001309
H         6.28058076946914   12.65346140926034   21.78276501952131
C         4.21033024365944   12.10444499984644   21.64195714442753
H         4.27547784391519   11.05011424367542   21.31496181729660
H         3.28535505869346   12.53608910620602   21.25219999257112
C         4.14774610887556   12.13063514034384   23.16975782454555
H         5.03589627700604   11.64171747474531   23.57119392331685
H         4.14058779008290   13.16672945202517   23.51372670370935
C         2.90851702299187   11.41182182846382   23.68532260939297
H         2.87817619237765   11.44609468065858   24.77012728372345
H         2.92291764510914   10.36888574590993   23.37853535899756
H         2.00161379580224   11.87581523765750   23.30359784612220
C         7.57829139812633    8.36302354591106   18.29219832141088
H         8.20503365900968    8.54400016585568   19.17304116945344
H         7.73424521581828    9.20132561231357   17.59716623164092
C         8.06792843840321    7.07313120630016   17.62608556087368
H         7.95944044267932    6.23199288874786   18.31153120051561
H         7.49690643736843    6.85153256685474   16.72241154628312
C         9.54343286083242    7.20486694502684   17.24452246493665
H        10.12890048215819    7.43033833190018   18.13766308433479
H         9.66772778164526    8.03617596359416   16.54697965068675
C        10.06876707283510    5.92604025148465   16.60491152731764
H        11.11666112894774    6.03888038394485   16.34258224235649
H         9.51349202040007    5.69060464263944   15.69982622033769
H         9.97731813310177    5.08843888493663   17.29196458602456
C         5.88252566135915    7.33434208408693   19.72830470502605
H         6.69333715368329    7.34395736889300   20.46233765065939
H         5.87021478120847    6.35302325061433   19.24064043269746
C         4.55703122600168    7.55974448536062   20.46366256939319
H         3.71309351796529    7.20138600778617   19.86935789395620
H         4.42724973759339    8.64253591438549   20.64823187394229
C         4.53845078723982    6.83764641381628   21.81168959683662
H         4.74431443586180    5.77678198269015   21.65699266596222
H         5.32223406467837    7.25147927097915   22.44672420503408
C         3.19408906620209    7.00017864492666   22.50783108394423
H         3.20318995851547    6.49045874698237   23.46643520807080
H         2.39055342755664    6.58115771304009   21.90602451600251
H         2.98398088638387    8.05232884249149   22.68406848367518
N         7.30742588565491    9.86122022973875   21.89352820877198
N         5.82151129409515   12.44941501787679   19.76212870528261
N         4.62345236740451   10.64368115966715   17.89648778503215
N         6.16651786441766    8.39049343419249   18.74108623787181
O         7.64700734245943   10.19502152756111   20.73911689949943
O         6.10978154096455    9.69243351432920   22.08311165963969
Pd        5.97139746214021   10.35820651643314   19.49089522928108
H         3.64450633844432   10.48921692402220   18.14369524592550

