49
CSD_code = WABJEQ | q = 0 | S = 0 | Stoichiometry = C24H16I2N6Zn | MND = 5
C         4.16789899105313    1.29674070058548    0.29250807271727
H         4.98388855927533    0.75852890680887    0.75665290727187
C         4.01881289926977    1.32585023345229   -1.08475439328015
H         4.71321666203407    0.79845473860307   -1.71830553666406
C         2.97821452044558    2.07060934631199   -1.61858861669801
H         2.85320268906082    2.15476593499214   -2.68767247746301
C         2.10230463135607    2.71265012155334   -0.76199992163608
H         1.29744125665786    3.32024251043539   -1.14281753589596
C         2.30022269325101    2.58433193317243    0.61052482425941
C         1.43865248359901    3.21785913035354    1.60410231056782
C         0.08145592449227    3.58858416673806    1.43566792964817
C        -0.82016959238311    2.98324912849572    0.45493927173796
C        -1.98108970459332    3.64340481492148    0.05205846675963
H        -2.19630282302417    4.62673203617014    0.43785479803826
C        -2.82017343476091    3.00781044384531   -0.84649187428082
H        -3.72637238738934    3.48939517186617   -1.18389324325379
C        -2.47892335082739    1.74401988767129   -1.30321663694687
H        -3.10735478171713    1.21344816913007   -2.00071421362013
C        -1.30154226507892    1.17242497363521   -0.83671802806711
H        -0.98918350921062    0.18714595010378   -1.15631362562449
C         3.97613079413960    3.86908155944372    6.17582864707390
H         5.02746910160863    3.61942120299807    6.12018103904866
C         3.36882893429871    4.14777613624622    7.38950384734398
H         3.94336706299810    4.13176528373481    8.30130319466878
C         2.00833470584520    4.41560478132602    7.39893880486525
H         1.48903761213345    4.59564002297422    8.32825259647984
C         1.32040029533313    4.44273946823114    6.19941614045022
H         0.25803758035861    4.62337930649178    6.17119258062777
C         2.02490305722371    4.19988361150238    5.02286970654890
C         1.39889463352712    4.20156085610275    3.70398025957723
C         0.23795523602891    4.91588125087894    3.31739917974219
C        -0.25074609444194    6.11934147607890    3.99093482790743
C        -1.56844855805034    6.54432552400438    3.81953543054505
H        -2.24304295298415    5.95810679501753    3.21683823023251
C        -1.96867893731703    7.71299001076718    4.44339959497869
H        -2.98187690819762    8.07178812851414    4.33543646718991
C        -1.04753373259275    8.41481310089086    5.20566467222710
H        -1.31815510836532    9.33167429498226    5.70471325619930
C         0.24146701335872    7.90685323595084    5.31065383371110
H         1.00112674189112    8.41543108456521    5.88914709613485
N         3.34199110438224    1.91973956612923    1.11415831049097
N        -0.49318116233672    1.76994533888231    0.01378358997926
N         1.99042058151009    3.46250870999548    2.78064663854985
N        -0.41885129988480    4.50118448822284    2.24877127621947
N         3.32039053533187    3.88077801812662    5.02876298977951
N         0.63178957492666    6.79376588571494    4.72549966995913
Zn        3.96202344744999    2.67589647093379    3.18879059266403
I         3.94552611286719    0.45468797512997    4.39998839323547
I         5.73502116744931    4.24548811731648    2.29018665600179

