53
CSD_code = WABLAM | q = 0 | S = 0 | Stoichiometry = C18H26MoN6S2 | MND = 6
Mo       -0.07892612913205    0.46554245283444    2.78273542106552
S        -2.34374966265378   -0.20192371555659    1.92043539458992
N        -0.59347199188292    1.65595964960527    3.99089623145199
N        -0.96793674156357    2.41070123646760    4.85413421491700
N        -0.66220695649886   -1.14351322769977    4.33572701526978
C        -2.22666687850437    2.97832070858258    4.92189571453463
C        -2.60727831434562    3.61893136639662    6.10139511459744
C        -3.86150840925527    4.18677699164625    6.19964095694303
C        -4.75577478445503    4.14108711650847    5.13581445961683
C        -4.35987954748309    3.51364229104862    3.95601516945322
C        -3.11545230832958    2.93595002555567    3.83994274989087
C        -6.11903924930379    4.75363688852634    5.23926469654782
C        -1.93288532984819   -1.82708407001118    4.08476446357556
C        -2.93423861858822   -0.83187726607341    3.52342890731827
H        -1.91448700765623    3.65319418834126    6.92812292434415
H        -4.15298818277678    4.67573619898818    7.11860946084813
H        -5.04267096243837    3.47922241614111    3.11898455292547
H        -2.80148526419112    2.46004124555182    2.91760139257584
H        -1.76844366330073   -2.61756347483090    3.34215959890368
H         0.08855190772877   -1.81633370146392    4.50513059768679
H        -0.74471408800593   -0.59540133502474    5.19549393253669
H        -2.33286630614411   -2.29014682013314    5.00044717345496
H        -3.89682155414947   -1.31210005254490    3.34288836203305
H        -3.07399692687756    0.01162097719010    4.20654201534552
H        -6.88784380232157    3.99904008273134    5.07521589356623
H        -6.27361154245682    5.20033847820544    6.21817833444169
H        -6.24628998128327    5.52509609451411    4.48062972868030
S         2.18474933043875   -0.20299071960552    3.64628693710357
N         0.43552758511099    1.65455855917587    1.57320006003814
N         0.50215876519241   -1.14625179570595    1.23215105888529
C         2.77433217043608   -0.83570169488760    2.04409340475303
N         0.81011767024847    2.40911549791579    0.70992549150709
C         1.77204954365815   -1.83085066629303    1.48433139529610
H        -0.24934862220889   -1.81846475333559    1.06365378404522
H         0.58536433958955   -0.59952288262695    0.37156922152878
H         3.73648812401006   -1.31661089761915    2.22514991340944
H         2.91484552636094    0.00655357567638    1.35956399708056
C         2.06857224580360    2.97743279659352    0.64275711402036
H         1.60663229303019   -2.61985464211190    2.22829700323680
H         2.17150039476058   -2.29593635244648    0.56945785809209
C         2.44907295658210    3.61900233715035   -0.53624463417929
C         2.95699829740175    2.93517074670716    1.72500391057286
C         3.70277689118403    4.18813593817111   -0.63364191527276
H         1.75661357794623    3.65305712876427   -1.36325553983571
C         4.20089997240867    3.51415814678108    1.60978672568049
H         2.64311597016465    2.45842704338999    2.64694837386504
C         4.59662542532397    4.14276014346374    0.43054681944413
H         3.99414338404574    4.67793320722273   -1.55219528843636
H         4.88335773530516    3.47997280668681    2.44710001450020
C         5.95915803385148    4.75711031957370    0.32819792540760
H         6.72881271098860    4.00407118026273    0.49528110973342
H         6.11479151076458    5.20201787201899   -0.65136443199176
H         6.08382646333060    5.53041235955782    1.08540521445026

