57
CSD_code = WABNIY | q = 1 | S = 0 | Stoichiometry = C26H22Cl2CoN4O2(1+) | MND = 6
Co        6.73266569515218    0.96848403297170    3.98279728642151
Cl        5.77731161184902   -5.15746143693488    5.78877304315612
Cl        8.31484081019551    7.22970867876186    3.96217244832139
O         8.30450372786496    0.63573851531600    4.97320694131690
O         5.90379494437512    1.52433792114149    5.58432525187681
N         7.53967188312710    0.46428207227520    2.36050547501607
N         5.17138813438011    1.24534534843381    2.97251499873303
N         6.28718632254721   -0.90106816342639    4.41850397703935
N         7.26059644804978    2.85694639687987    3.81394497227174
C         9.65022393852779   -0.31448190843705    3.22900717829533
C         9.38540554700229    0.05587038597242    4.58225174333169
C        10.38900815610825   -0.22372632385702    5.54239385861215
H        10.18986489897176    0.05907819820772    6.56448317938960
C        11.56440619623641   -0.82900903319591    5.18981345310538
H        12.30829865927024   -1.03052397107962    5.94581907634883
C        11.81768244527909   -1.19229627658682    3.86051576353090
H        12.74941158904662   -1.66801608997396    3.60076743448967
C        10.87618651624283   -0.93482503067915    2.90388324835312
H        11.05716707678794   -1.20591620977122    1.87374044789443
C         8.71378241163192   -0.05763844037621    2.20326432947039
H         9.02511279783945   -0.32789587804404    1.19296515254249
C         3.80318330191575    2.25353168764079    4.68315280076820
C         4.75538723023164    2.08699198992001    5.73384265053168
C         4.39563563923141    2.56019359302469    7.01983419974399
H         5.11382692593132    2.43095651468738    7.81466677863869
C         3.18625481001120    3.15865935418367    7.24695220482133
H         2.94307985605441    3.51075444063238    8.23808710135943
C         2.25717485491142    3.32230846428586    6.21106796944557
H         1.30915633009552    3.79595762823726    6.40811493889635
C         2.56481894863155    2.87386157812318    4.95721102443544
H         1.85808935881175    2.98930792915769    4.14817567435546
C         4.06945956888641    1.79263528102372    3.37477852835638
H         3.26158640720443    1.91377088410447    2.65138527838575
C         6.72445682704868    0.69451449147809    1.17996860834058
H         6.86673328190201   -0.10491221398257    0.44384924100034
H         7.04502294757839    1.63055963898630    0.70688410891256
C         5.25103332565270    0.78788507826764    1.59579028763258
H         4.70407955178905    1.46206156972376    0.92676694889818
H         4.77387052081012   -0.19694071151531    1.52360797665541
C         6.11892294420547   -1.89778035029751    3.54649989808996
H         6.12322428595061   -1.64869436303307    2.49709274766274
C         5.95561557275400   -3.21690769765060    3.91739013837523
H         5.82487832873800   -3.98068645997210    3.16848131509644
C         5.96834128006200   -3.54135731100651    5.27122328292674
C         6.14741347314814   -2.50770376399825    6.18457088428986
H         6.16939796019918   -2.70447447236896    7.24371910424664
C         6.30408025951649   -1.21854340550084    5.71632228771134
H         6.45128611450429   -0.40036200835271    6.40621577919402
C         6.91814669754245    3.68942270684338    2.82816060384595
H         6.36651576612053    3.27849063159778    1.99736278756955
C         7.21975803259166    5.03598364468726    2.82715721201766
H         6.91785405822745    5.66074259310028    2.00265123348247
C         7.91468431158940    5.57043930391927    3.90876420683416
C         8.26549019569235    4.70987338746036    4.94370432095326
H         8.79793710672631    5.07309286962874    5.80722266070811
C         7.91810735220538    3.37680223568155    4.85461354416126
H         8.17498676304502    2.69063247368698    5.64836241213885

