37
CSD_code = WABNOE | q = 0 | S = 0 | Stoichiometry = C14H14Cl2N2O4Zn | MND = 4
O        19.81347505026096    3.58916417090495   11.58606075436594
O        20.92014299872947    2.49106511950309    9.99262089005535
H        21.58302319361491    3.17764547958950   10.16486061208737
Zn       14.24843148721398    0.12384845005923    8.64411491790986
Cl       12.92432489081013    0.90920519865761   10.18709910969418
N        15.63419915279387   -1.03109732970789   10.04888989435919
H        15.07511292823993   -1.13358973967157   10.89203985351006
H        15.96249144443165   -1.93645468372219    9.72609608895742
C        16.71632791348726   -0.13112056083190   10.25786839626125
C        17.88358808736242   -0.25998967086427    9.51305310812760
H        17.97449805051476   -1.06140186350119    8.79457015497382
C        18.90890258935880    0.64972406695310    9.67095342013038
H        19.81152828098705    0.55921745849338    9.08842823296265
C        18.77998486171104    1.69321493667468   10.58416924220544
C        17.60789919172603    1.81856560632046   11.32851592055822
H        17.52221412696365    2.63707927425408   12.02636039651361
C        16.58057367606758    0.91288801942887   11.16844799489710
H        15.66459711814499    1.01621565647123   11.73191258123130
C        19.85522403059629    2.68590454691728   10.78796268994802
O         8.68193072081796    3.58917848476683    5.70530587198163
O         7.57584080319105    2.49126167490193    7.29924496572674
H         6.91310797786551    3.17808705012308    7.12740741173387
Cl       15.57335506054247    0.90529757055402    7.09978806740634
N        12.86140953728120   -1.03144248253176    7.24081796858532
H        13.42010272265331   -1.13416068567409    6.39742928390320
H        12.53321712916190   -1.93671702816301    7.56394950032199
C        11.77924774152773   -0.13144427625961    7.03217928737520
C        10.61227349864878   -0.26019130681442    7.77746621285916
H        10.52162170349084   -1.06154871038342    8.49603353509543
C         9.58696859318617    0.64959980899816    7.61997988265725
H         8.68457500742372    0.55918965250627    8.20287409399388
C         9.71560594437330    1.69307253334218    6.70669009139025
C        10.88741183941136    1.81832504991627    5.96189023218921
H        10.97281385586579    2.63673979352075    5.26390658371493
C        11.91471306240721    0.91253838747195    6.12152299147083
H        12.83043827000679    1.01574573968617    5.55762338657191
C         8.64032745911283    2.68578460812942    6.50326637427875

