81
CSD_code = WABPAS | q = 0 | S = 0 | Stoichiometry = C30H36N6O8Zn | MND = 6
Zn        0.00001262051595    0.00009335456165   -0.00016602479183
O         0.79667969169992   -1.04103762995883    1.47678502858990
O        -0.87245430394139   -0.96108281041648    2.94942551806855
O         3.05114584369412    5.75951259412665   -1.02605830692502
O         1.13040485124477   -1.11755668754779   -1.47305085341009
H         1.15866470029094   -0.35152377819988   -2.13604694585410
H         0.63275700289089   -1.80757047059749   -1.91907887677648
N         1.58541050205538    1.41254428546956    0.06550359123740
N         1.06631771779471    5.08898008291436   -1.86485022419677
H         0.90161060231543    6.00173836154799   -2.25735851634901
H         0.48207393141950    4.32886338364073   -2.17956292124406
N         2.28939223002091   -6.08068118078810    5.04840137754873
C         0.17526487724457   -1.46270764855141    2.49600943785383
C         0.74724790645408   -2.66172875213684    3.17588095168206
C         1.84765799367703   -3.33147668441295    2.64409517488842
H         2.29255393439949   -2.95352944817762    1.73580227955298
C         2.36362267353146   -4.44930912931106    3.26003181828190
H         3.22038035504781   -4.92935757584303    2.81727033954362
C         1.80058163780042   -4.94955646764624    4.44676639283952
C         0.69572454112767   -4.26241172935373    4.97872650280957
H         0.23159830102956   -4.59785265362291    5.89103841077913
C         0.18457063393722   -3.14690564212191    4.35479349067896
H        -0.66392170649313   -2.62560703794489    4.77201770051711
C         3.49287267456302   -6.70162996562454    4.55075272887502
H         3.69836853135060   -7.60202803654790    5.12499846204514
H         4.36233531296113   -6.03794707513906    4.62622574662743
H         3.36595449084148   -6.99419039531513    3.50621797768475
C         1.83679866784344   -6.44257218487178    6.37057323565335
H         2.38223880845480   -7.31831578138497    6.71356395878713
H         0.77305759625644   -6.69337734572858    6.35837761309509
H         1.99724930681382   -5.63374393756959    7.09201689498504
C         1.41067975329108    2.66876457100401   -0.31982707785882
H         0.39788934136923    3.04367994005006   -0.27008511209110
C         2.45239250466107    3.47417010515299   -0.76153128540780
C         3.74095773913023    2.94767123729632   -0.74510446761693
H         4.56674653676111    3.56434420047500   -1.06769822716528
C         3.92204285069581    1.64426817276070   -0.31955414044714
H         4.90386123344141    1.19861120755485   -0.29652907687732
C         2.81219428156463    0.90719974601327    0.06144249494612
H         2.88628383237124   -0.12070225762584    0.38019207886097
C         2.23839781654778    4.88153373871539   -1.22615442326999
O        -0.79658074149126    1.04116192475777   -1.47688289685538
O         0.87282479980021    0.96125225794451   -2.94925186815188
O        -3.05072796088133   -5.75958841372464    1.02571339617323
O        -1.13032123129197    1.11760515928387    1.47309497347889
H        -1.15857766771812    0.35135318911937    2.13591895307870
H        -0.63274222018085    1.80781119764102    1.91892340183631
N        -1.58533861717927   -1.41243985284669   -0.06559594631533
N        -1.06607179548878   -5.08879144969611    1.86469434690151
H        -0.90135342637265   -6.00145685309548    2.25738761397164
H        -0.48204915345136   -4.32855865005823    2.17949852021999
N        -2.28963280275765    6.08056592105832   -5.04823744196266
C        -0.17516360068686    1.46269339533233   -2.49607534158716
C        -0.74704085538839    2.66187685584897   -3.17571727726588
C        -1.84767282755257    3.33135889260407   -2.64396564371208
H        -2.29252691938747    2.95333236431558   -1.73568415451668
C        -2.36385690321665    4.44901266121593   -3.26004250384711
H        -3.22090516042778    4.92874857636439   -2.81751407474880
C        -1.80080466180154    4.94939554454422   -4.44672094014713
C        -0.69587483374407    4.26239124411211   -4.97872367765141
H        -0.23194193314677    4.59771434609277   -5.89118392016041
C        -0.18449333164052    3.14708346274985   -4.35465212288712
H         0.66409404568068    2.62590164282390   -4.77184389568285
C        -3.49313633737406    6.70146449399829   -4.55057354006688
H        -3.69853622330048    7.60200225624255   -5.12464272354308
H        -4.36263570965315    6.03784904764701   -4.62627308995057
H        -3.36627974212507    6.99379001931737   -3.50596429491040
C        -1.83694203784112    6.44263152141857   -6.37032828564250
H        -2.38230578951431    7.31845824178688   -6.71321867856881
H        -0.77318883278952    6.69336989999407   -6.35800643045520
H        -1.99738571232822    5.63392673554030   -7.09191174234934
C        -1.41053987312728   -2.66862134586262    0.31985843941817
H        -0.39780224687122   -3.04358657938252    0.26978153621329
C        -2.45223763949743   -3.47412568713101    0.76141909119590
C        -3.74085282013046   -2.94773994027696    0.74492684885733
H        -4.56659940356129   -3.56445540164744    1.06749230640577
C        -3.92201299060190   -1.64435783322280    0.31929364705486
H        -4.90379766517139   -1.19864431122462    0.29665462394803
C        -2.81219655706718   -0.90722109863740   -0.06171011959602
H        -2.88629768964748    0.12078524526727   -0.38003853337613
C        -2.23811274777642   -4.88152135506284    1.22584871903860

