52
CSD_code = WABPUK | q = 0 | S = 0 | Stoichiometry = C22H22N2O5Pd | MND = 4
Pd        8.37724891043677    2.40330892895934    1.18038148311297
O         9.95434698657560    0.99727478832176    1.23958841081539
O         5.81405270172112    1.50320835664468    1.85076748561976
O         5.61342422262679    2.64534745005569   -0.08198657346974
O         6.37199015049229    6.01027031192194    1.49860942596672
O         7.07163286956671    4.81581173465721   -0.28217920511294
N         8.55336823333258    2.47107247744729   -0.78862922383574
N         8.43173879232680    2.18677362525308    3.08835714852764
C        10.11700240226846    0.64610967908233    2.48376638351385
C        11.04354934397766   -0.30531640047452    2.91142329016273
C        11.15146832267207   -0.63830540830963    4.25973690801920
C        10.36739361002012   -0.06334708202624    5.23444722517437
C         9.41736489922114    0.90527090216636    4.87426995489705
C         9.31225883908806    1.25241106781377    3.50482073050864
C         8.53855594960994    1.57131303209707    5.75915516125084
C         7.64492419967247    2.49721986275688    5.28874095455924
C         7.60845045165976    2.79940177143985    3.91362131104656
C         8.16515550626846    1.37633857506078   -1.44276206277943
C         8.45738431601493    1.16602705697537   -2.77912090269374
C         9.19374623939831    2.12219936590413   -3.46297047190891
C         9.62175011473678    3.24426112041578   -2.77033133321762
C         9.28206993343612    3.38004559369658   -1.43478177346868
C         6.79017629058134    3.67166930910060    1.72879513240795
C         6.70017350532977    4.94954062817064    1.01508246307922
C         6.88557639368376    5.93824446558227   -1.13964011289886
C         6.30927441713357    5.46313453435279   -2.46316230392599
C         6.07321042675839    2.50854952564870    1.19397075616439
C         4.79687400937228    1.57501918042243   -0.55446142248006
C         4.59129194644203    1.75014983942601   -2.04818748867601
C         6.68997278030983    3.78615747873131    3.26113807075412
H        11.67323063157673   -0.78696670530315    2.17915339788007
H        11.88117448962828   -1.38316228161248    4.54514561902272
H        10.47062234023185   -0.34823450466849    6.27003499898170
H         8.57881042657055    1.33408489185503    6.81277050050569
H         6.96322866212886    3.00301727935613    5.95487488763983
H         7.60943281197581    0.63721476106534   -0.86674204134798
H         8.11929171621665    0.26853608923758   -3.27306226090027
H         9.43576354410983    1.99046060387577   -4.50660840380547
H        10.21191185114487    4.00424043356816   -3.25801039983436
H         9.59468836964371    4.24671992512884   -0.86116355901161
H         6.21522258940295    6.64974967139401   -0.64543614616537
H         7.85799164471431    6.42313335138430   -1.28993907258484
H         6.15266944003222    6.31175843004783   -3.12337935427507
H         6.98883573086931    4.75969038311925   -2.93843526622828
H         5.36090142562521    4.96229693990447   -2.29112636069210
H         5.27908648214043    0.61807544877407   -0.32213461434391
H         3.83861710821059    1.60098002314338   -0.02143166535168
H         5.55034663404700    1.77808813672728   -2.55926824937282
H         4.00037251908023    0.92501655126262   -2.43584078296228
H         4.06808551995486    2.68174324250744   -2.24488460466807
H         5.66054013780948    3.60294323926124    3.58826430343390
H         6.95144916015459    4.80865231866745    3.55085965297123

