63
CSD_code = WABQUL | q = 0 | S = 0 | Stoichiometry = C25H35NOTi | MND = 8
Ti        0.11824477805002    1.41611447873670    7.76223419021975
O        -0.01185963226576    1.64120962172012    9.44170969292852
N         1.39272068761579    0.10956277112655    7.50622275008790
C         2.37955868423612    1.91851311542630    6.23417631331350
C         1.61765989323409    2.77774844105176    7.26039542858932
C         2.50147138305825    3.01713784735316    8.44631023607559
C         2.17683537636992    3.53717927117181    9.63264071018936
C         0.76238825944764    3.82015879616069   10.05813038518948
C         1.30839270846670    4.13624962980927    6.60387505532010
C         3.23825846837059    3.88117164701712   10.64385442626018
C         2.59910681586965    0.50855242849949    6.81215148695935
C         2.98796308817807   -0.45347895290358    5.70736207761686
C         4.30484707646306   -0.85738281529206    5.53285440756170
C         4.64743374421518   -1.72261664994027    4.50780413858827
C         3.67442011413726   -2.19986460676107    3.64714841059756
C         2.35720130026806   -1.80469817118054    3.81480770696380
C         2.01933725013122   -0.93578088725657    4.83542716617762
C         1.54618655795430   -1.08722213081803    8.30202884137708
C         0.16420058600572   -1.60084140786043    8.71516754753071
C         2.38595030436729   -0.82430511063682    9.56607916364504
C         0.01269233305426    2.52551176907888   10.49820459208131
C         0.69577216503373    1.87782374003986   11.71800973311675
C        -1.42648305025554    2.91033676789188   10.90092430976200
C        -2.12009273977711    0.60619335912465    7.38105519640923
C        -2.26965532631805    1.98414251179804    7.60843105466564
C        -1.56702060091414    2.67245654546284    6.60808429067315
C        -1.00410489891271    1.71395695147182    5.73222393221631
C        -1.35275639301783    0.43722993132286    6.20964393778040
H         1.79944213296412    1.83657575008862    5.30729104068430
H         3.35293357444457    2.36069235889407    5.97234501797883
H         3.56112985918689    2.81663641716027    8.28264401558698
H         0.75400122643864    4.52862013326772   10.88848063728131
H         0.18627796818014    4.24029372348171    9.22823129644187
H         2.24584218360752    4.65631578155634    6.37615232214933
H         0.72956811090647    4.78931763516459    7.25704971259199
H         0.76845736065756    4.01237315246729    5.66422706124175
H         3.36766935216705    4.96447237929955   10.68165039196561
H         2.96569725520494    3.55080289368990   11.64353306409049
H         4.19400599266903    3.43711361217849   10.37615612112374
H         3.44393144412149    0.56070736711052    7.52512741255868
H         5.06906301487650   -0.49222130528742    6.20534436502331
H         5.67625283820044   -2.02871577907856    4.38348957159224
H         3.94024722674505   -2.87801967668788    2.84948303666528
H         1.59386894910048   -2.17425030056490    3.14484226561830
H         0.99401042634032   -0.62204591332280    4.97656178572614
H         2.04885236321928   -1.86866439844615    7.69998684617096
H         0.26067503532636   -2.49956267139608    9.32237265503889
H        -0.34247277758670   -0.82421915654926    9.29823169406407
H        -0.42714886638428   -1.84296409306083    7.83235054697105
H         2.31535968279999   -1.66116306496032   10.25652342196230
H         1.99973358586708    0.07806327243438   10.03833301702194
H         3.43421368994043   -0.67438247676654    9.31967251005217
H         1.71982878608095    1.60733015802679   11.47453848398908
H         0.15438513650960    0.97482928509945   11.99605172324985
H         0.69666901143624    2.56174416849315   12.56320298846303
H        -1.89488636875413    3.49517905733480   10.11211736146580
H        -1.42179444610398    3.49786623479900   11.81561807741111
H        -2.01043897823632    2.00553210493307   11.06471799317062
H        -2.62473589977210   -0.18054135664022    7.92936860217757
H        -2.90603249679108    2.42963799984746    8.36051514781042
H        -1.59721751139724    3.74247154605010    6.44289931105847
H        -0.54926434644238    1.92641428951487    4.77081892932885
H        -1.19469344858935   -0.50269801974265    5.69421439037884

