78
CSD_code = WABRID | q = 1 | S = 0 | Stoichiometry = C33H42AgNP(1+) | MND = 2
Ag        2.91191081929835    2.06974392846746    4.98776789605889
P         2.50929180584197    1.88169675369449    2.49917693813552
N         2.67633987311550    0.73689047924642    7.01716134925131
C         3.89119546020405    2.66592171883551    1.59228292735877
C         5.02047118325916    3.09519303273809    2.30142882080205
C         6.09551978485544    3.65072946100620    1.61496685408109
H         6.96217899661295    3.97180693464503    2.17420739475271
C         6.06072167528998    3.80017206330026    0.24127268424763
H         6.90201216174288    4.23410104716415   -0.27597866251461
C         4.93898034003037    3.39506612200940   -0.46238670763853
H         4.89750802432643    3.51407746615622   -1.53418197837902
C         3.86969415100876    2.83139829283673    0.20769484350129
H         3.00763351945511    2.51723593950987   -0.35622374780788
C         5.13322091608888    3.00839175450036    3.77689956476812
C         4.62835592758525    4.03861602785569    4.57766559768853
H         4.15775163550745    4.89047347907070    4.10425249927099
C         4.83256642580687    4.02121540837334    5.95166809858912
H         4.48782524529298    4.84574664168538    6.55873913992279
C         5.54330653385487    2.98241274277083    6.53700136884209
H         5.73896086457607    2.99515978960229    7.59929058358543
C         6.04580036275870    1.95843827515856    5.74959787230540
H         6.63394681255375    1.16917629384386    6.19437154382163
C         5.84525599695499    1.97100054147647    4.37700708354640
H         6.28943254294124    1.20388920747810    3.75933463994265
C         2.55740929018672    0.09279926831952    1.88024076233444
C         3.79565738597671   -0.48620196501355    2.57171827220262
H         3.86875795805683   -1.55539920335570    2.38307411230191
H         3.73964400294811   -0.32595107374147    3.65507133346023
H         4.70060483384128   -0.01235737470605    2.19422023446975
C         1.30817319172367   -0.61169087026210    2.40732828195905
H         0.42864414619496   -0.34335107165325    1.82810825668797
H         1.13586204996197   -0.34826218181420    3.45366372175572
H         1.43223527183276   -1.69108283400374    2.33947652648153
C         2.69185025629661   -0.11322908875999    0.37523977418716
H         3.63245390691307    0.28652316884842    0.00493806885734
H         1.87261540067838    0.33677705836693   -0.17666784053279
H         2.68162343196501   -1.18253894328357    0.16864380681956
C         0.94305224903276    2.81671275010896    1.97399506347597
C         1.31712239751555    4.29182184131239    2.14025546023326
H         2.04059106277100    4.60448449033981    1.38989387049944
H         1.74436025613766    4.46124987349574    3.13192396075106
H         0.43256722597613    4.91845868444989    2.04497165801685
C        -0.12849920418958    2.46345832660099    3.01074028727216
H        -0.94814252418636    3.17665110736823    2.95060294133252
H         0.28663160937713    2.50517333317666    4.02441841839271
H        -0.53482852409919    1.47009940949877    2.84299618278046
C         0.37590183965734    2.56773870371597    0.58014461782538
H        -0.54449192185734    3.14095273678420    0.47520556856647
H         0.12865657666281    1.52060977803540    0.42809700355705
H         1.05010243851424    2.89575140141438   -0.20463501488849
C         3.66153811077735   -0.13573082217263    7.65955485862694
H         3.36577925164712   -0.34560572061745    8.69765122929234
H         4.64758201325928    0.32820156435593    7.66076425708680
C         3.60262103770924   -1.41122046736478    6.82459502738051
H         3.90351298610908   -2.28241591139540    7.40094560531931
H         4.26718581680477   -1.32568552877791    5.96426908993713
C         2.13289267866364   -1.48420968923401    6.36960875898485
H         1.61153281854458   -2.32749952696997    6.81703975403526
H         2.06657228677416   -1.58516888824540    5.28785103283397
C         1.52479240086832   -0.15935147670541    6.84265652685315
H         0.80547546122211    0.26357827895103    6.13612882619585
H         1.01571765836926   -0.30453938446027    7.80715478801050
C         2.35149949129228    1.90674845456583    7.83976034728511
H         1.67278075189075    1.64419397622537    8.66760827201012
H         3.27875448904840    2.29759450621119    8.27086665405858
C         1.74746906884938    2.94443368562086    7.01884983100480
C         1.21900939322385    3.85565346737517    6.42082076619103
C         0.56202150796087    4.93507284153141    5.77462115493285
C        -0.80747283316726    4.86186192182733    5.51526528292416
H        -1.35871721498808    3.98088552210420    5.80916875553131
C        -1.44656195539027    5.91742624847836    4.89384907464214
H        -2.50670025933517    5.86085616829760    4.69846089551914
C        -0.73303599211316    7.04776220388276    4.52645629208949
H        -1.23681223685092    7.87024848139393    4.04265522509180
C         0.62594792449114    7.12638029317133    4.78777912381467
H         1.17950086237927    8.01012840952180    4.50908964492551
C         1.27563702021348    6.07739063605242    5.40915515946297
H         2.33264179498203    6.13876002981962    5.62379183280579

