109
CSD_code = WABROH | q = 0 | S = 0 | Stoichiometry = C40H56N8P4Zr | MND = 6
Zr       10.89950808168341    3.68144207615962   15.30516579864784
P        11.96504406004875    3.17620663929520   18.05685105161672
P        13.38115280568657    4.79254594683168   16.49534172749226
N        11.77782656273870    4.77759392409677   17.27114900353956
N        13.37511760009989    3.09800611054845   17.00525288256199
N        10.90472587752701    2.43430736788561   17.00578405354541
N        12.81644485036755    4.57800138609132   14.94391080626056
C        11.41908495595681    5.94636879487309   18.08278418967996
C        12.61607936088869    6.48199435292383   18.87975299341510
H        12.29272192623628    7.26199579159996   19.56557006283424
H        13.37126799996798    6.89768803640900   18.21539756369972
H        13.06634434507377    5.67563384492742   19.45670632503307
C        10.92012729055775    7.02183556943343   17.11194134329722
H        10.07255242773398    6.63263910045891   16.54189447126321
H        11.72413105519370    7.29165034651309   16.42462684495386
H        10.60743800390692    7.91522110565432   17.64835791460647
C        10.31813975184766    5.56409568382845   19.07356829632962
H         9.50391576105822    5.05650492012073   18.56267064821251
H         9.92233853030300    6.45170298680382   19.56198044241695
H        10.71704214957861    4.89886350247989   19.83819800004962
C        14.60854747218173    2.42349978039638   17.38199862820743
C        15.34176412661114    3.18001953366397   18.49634119162408
H        14.69593270557436    3.26664290725764   19.36895062174463
H        15.60281867914868    4.18016582022272   18.15444387156094
H        16.25121092780859    2.65745817940250   18.78307605623420
C        15.49551974200035    2.35893508022359   16.13408078899032
H        16.44661888613312    1.88410630241644   16.36223289066409
H        15.68542662030961    3.36867635969853   15.76738150941800
H        14.99912574401754    1.79942641991886   15.34412894374836
C        14.26543942995104    1.01446235471547   17.87273558145408
H        13.67764963439816    1.07744747268558   18.78801269216543
H        15.17312656947285    0.45248197158657   18.07937152511042
H        13.67991374962966    0.48077087725396   17.12834526103770
C        10.31486931697770    1.20884954696201   17.19130456547842
C        10.50385459935521    0.41062433499764   18.32598515089548
H        11.14648507026114    0.77874283079341   19.11620281624754
C         9.88172697207362   -0.81581830725133   18.43638800998351
H        10.04258616124036   -1.41540914370893   19.32097924246627
C         9.05849777670201   -1.28351075369842   17.42474463320765
H         8.57874314899315   -2.24600442757210   17.51376964481668
C         8.85493174415533   -0.50184001869005   16.29714586785259
H         8.20778616219585   -0.86113115376589   15.50873436683106
C         9.46760415325178    0.72847500221797   16.17594355580623
H         9.30649888675642    1.36571761052048   15.30339797385707
C        13.78049028557485    4.70794513051097   13.94430478439538
C        14.62845681037873    5.82018704002093   13.88933908232978
H        14.52171993795974    6.58808791661504   14.64670442174817
C        15.58361130329608    5.93886317695968   12.90039525708075
H        16.22533801232556    6.80817823479264   12.88059468821505
C        15.72170531215097    4.95241706591428   11.93730284550435
H        16.46908720486924    5.04673003602755   11.16436571842583
C        14.89658825423441    3.84040050125315   11.98258837973751
H        15.00273471310817    3.05818984709353   11.24473629652371
C        13.93994094144920    3.71230401651499   12.97174013194922
H        13.30892074955207    2.83312512444427   13.00948056433306
N        10.02118262714400    4.77756008863428   13.33924096884580
P         9.83399980515184    3.17620763916940   12.55348320375877
N         8.42389599261706    3.09796792146844   13.60502580614612
P         8.41782359094469    4.79249403589558   14.11500467274918
C        10.37994621846784    5.94636280649506   12.52766200390802
C         9.18298429700535    6.48194341710301   11.73061935889228
H         9.50638152245173    7.26185091528641   11.04471579093736
H         8.42779832206968    6.89773866168717   12.39491365472866
H         8.73270633625118    5.67552908908410   11.15375031842667
C        10.87880128374642    7.02181661910999   13.49857367049868
H        11.72630776789263    6.63259188161554   14.06870609831967
H        10.07472704081452    7.29162770212334   14.18580941384397
H        11.19156642694524    7.91520717372999   12.96220960357214
C        11.48096796768280    5.56415933812386   11.53693983942950
H        12.29529182891661    5.05681726077408   12.04791372210445
H        11.87659123011419    6.45176777109359   11.04838778010608
H        11.08220725902988    4.89872205985451   10.77241402249817
N         8.98252736038212    4.57793417505276   15.66642977490388
N        10.89431752195347    2.43429464183897   13.60455171296539
C        11.48406344792027    1.20878279810746   13.41902783394873
C        11.29493988411537    0.41055618990084   12.28436970815899
H        10.65228688666184    0.77871446208611   11.49418991667830
C        11.91693107863903   -0.81595258377054   12.17395146455580
H        11.75592761385064   -1.41555985019607   11.28939838320628
C        12.74015245079749   -1.28372164020972   13.18556607062022
H        13.21981718541234   -2.24625648180209   13.09652488392004
C        12.94383275488092   -0.50206469861793   14.31315654496649
H        13.59103101172944   -0.86138463042455   15.10151060391161
C        12.33130748669099    0.72832282030427   14.43436542686184
H        12.49252960980504    1.36556719905083   15.30689008182556
C         8.01853250828898    4.70791353605444   16.66607995316787
C         7.17062934904743    5.82019988201362   16.72111454684613
H         7.27737846758369    6.58812189591028   15.96377283266016
C         6.21550108975918    5.93888496928528   17.71008384791939
H         5.57380920307737    6.80822465491630   17.72992606292887
C         6.07737262355869    4.95240761106276   18.67313938071311
H         5.32999133810104    5.04671252872459   19.44607827862236
C         6.90245237161951    3.84036601700377   18.62780944093100
H         6.79626933942964    3.05811925638719   19.36561799926195
C         7.85907534446171    3.71226481475642   17.63863496161527
H         8.49004014113307    2.83305065878364   17.60085142421722
C         7.19053619857853    2.42336460799585   13.22822696108242
C         6.45730551130158    3.17981431595306   12.11384701853681
H         7.10312463392349    3.26638455776341   11.24122344376895
H         6.19624776249557    4.17997992215754   12.45568507789555
H         5.54785959130295    2.65722619621138   11.82715638203413
C         6.30350126525786    2.35870999964751   14.47609389887135
H         5.35247658348437    1.88375042976983   14.24789664613982
H         6.11344401363100    3.36843323673202   14.84276111495166
H         6.79992290343536    1.79928045639400   15.26608296695927
C         7.53379244405891    1.01435890182710   12.73749763728164
H         8.12160320301623    1.07740739693666   11.82223849536328
H         6.62616567823494    0.45229360246230   12.53082614598558
H         8.11934942458187    0.48071961137932   13.48190116785299

