94
CSD_code = WABSAW | q = 0 | S = 0 | Stoichiometry = C36H52AgO3PS | MND = 2
Ag        5.09468471043192    5.86944780059311    1.95956106497774
P         6.71885757415375    4.88020494860009    0.41241722105774
S         2.73606888727741    6.14579985239190    2.54379875399869
O         3.50278392458786    7.35198028876508    2.87236812805063
O         3.24727578883689    4.97537803070555    3.26581223162568
O         2.73140061121258    5.90765988135464    1.09982968036009
C         8.33205600040166    4.52371705031913    1.20994393008140
C         8.52381064572537    4.78489406870725    2.57821884307402
C         9.79473993371147    4.60402847806882    3.12015110559957
H         9.94667733128338    4.83971891066630    4.16324958299277
C        10.85426084116257    4.14570542640299    2.36095703495385
H        11.82717210674927    4.01507934149441    2.81072821780846
C        10.65718992042013    3.85785617812573    1.02195279345530
H        11.47191869642472    3.49132434068505    0.41508793428068
C         9.41057389457181    4.05687894544607    0.45966583684698
H         9.27139415480567    3.84792284389321   -0.58833373875037
C         7.45991400535217    5.25514875101945    3.50977948436663
C         7.15583672607453    6.62870350630592    3.59550751546870
C         6.20475800198774    7.06049234699882    4.51564591597672
H         5.98371072573558    8.11402226141485    4.59620562440317
C         5.54712979440632    6.17476419436106    5.35770032648725
C         5.91981064311917    4.84216702484677    5.31856775372264
H         5.46502707093530    4.14888952451305    6.00624147586302
C         6.86906951869875    4.36714451535710    4.42179376177984
C         7.95922971585532    7.65746203421623    2.82819112647425
H         8.48765729448793    7.14577848462149    2.01822844442706
C         7.07092459707014    8.75043408999522    2.22952745906174
H         6.73620023926713    9.44231143397680    2.99717383603307
H         6.18268481795861    8.30346863749207    1.76353820678145
H         7.62136933722134    9.32156241797268    1.48384584206445
C         9.01158915255055    8.27136638060000    3.75790486430864
H         9.59455073611732    9.01888280555421    3.22431725378479
H         9.68827869487217    7.50361044513709    4.12512433983237
H         8.53455848289890    8.74592289864898    4.61180112912143
C         4.50802115415203    6.68739556827152    6.32189297675805
H         4.13853466157183    7.63915273111842    5.92630030301275
C         5.14683904419744    6.93846305447190    7.69190119172709
H         5.54513598263189    6.01097063116975    8.09898946047883
H         4.40805597159520    7.33164646137151    8.38702220871020
H         5.96279773566079    7.65391854970494    7.61065311184093
C         3.31934215547894    5.73333545634853    6.43606569348703
H         3.02600843988741    5.40289124387126    5.44234388693650
H         2.47458054097652    6.23660446865457    6.90270092602613
H         3.56864823057262    4.86152373354979    7.03782612753943
C         7.28769820330213    2.91571237330374    4.52368516812217
H         7.84299143794126    2.64480619286530    3.61972034056816
C         8.22855424633386    2.73190601838229    5.72068145536268
H         9.14151497352018    3.30706228575422    5.59384204174620
H         8.49629736067251    1.68250361170826    5.82580806666868
H         7.74316464142440    3.05979499408049    6.63693947411382
C         6.08467796460673    1.97717441496588    4.67583802766454
H         5.76350819421188    1.92901232394332    5.71341874416214
H         6.35234093796278    0.96923649773334    4.36523079943839
H         5.24643820463714    2.32019857100043    4.07689282039842
C         7.11418508626143    5.85418126861637   -1.18540985279884
C         8.20209400040585    6.87482690164919   -0.84826596063361
H         8.37722741765932    7.52247376655170   -1.70637660798046
H         9.14263248971244    6.39271610424241   -0.59010865335385
H         7.88266059167011    7.49347815014835   -0.01513815213450
C         5.81893719915759    6.61779583301590   -1.49153895159645
H         6.00238165932350    7.37275000844896   -2.25489179615963
H         5.44149691189134    7.11614260431314   -0.59161737788011
H         5.03997380062587    5.95189354545449   -1.85141875683039
C         7.52939950615979    5.07914477549543   -2.43548284634204
H         6.77125568656098    4.36405500547237   -2.73844367699552
H         8.47669384793865    4.56358916469033   -2.30638995358692
H         7.65554010832151    5.78821810011391   -3.25394094771561
C         6.03737986273653    3.16592891805249   -0.02669486856269
C         4.75991878939581    3.36349537822949   -0.84271081094385
H         4.96836964120762    3.66427039686452   -1.86624714571722
H         4.12533870209775    4.11697401629345   -0.36804680846004
H         4.20305772049893    2.42790384688038   -0.88033161038684
C         6.99518625150368    2.19131843693073   -0.70983340776484
H         7.86531733497432    2.00248640239170   -0.08500354223193
H         7.32812437132775    2.54223829310881   -1.68052588105246
H         6.47982506726355    1.24291918762401   -0.85937339614762
C         5.64525027685258    2.58207533139582    1.33140100077347
H         5.14496759714337    1.62380943313216    1.19908759698712
H         4.96025291148118    3.26021795151268    1.85434457532462
H         6.52886182542928    2.42527312331118    1.94419739546991
C         1.05476941817765    6.42731243115965    3.05641844665200
C         0.37419235489433    5.47079807791835    3.77914945252840
H         0.88415291228382    4.55513805996437    4.03676105266801
C        -0.93707510917645    5.70582917834245    4.15935174507594
H        -1.47322096342110    4.95888630234133    4.72793703814480
C        -1.57008841461330    6.89384329508037    3.81617463243571
C        -0.86502480013105    7.84653096940908    3.08523367891407
H        -1.35047778896934    8.77396915392863    2.81520657133506
C         0.44423660899886    7.61492732185465    2.70567094375227
H         1.01053847900418    8.34151607776472    2.14385468244358
C        -2.99326614272997    7.15415930242992    4.21086307592906
H        -3.08536920093330    8.12673400789994    4.69135341002112
H        -3.35471482129760    6.38977702842285    4.89395116354430
H        -3.63239584787802    7.15776552871435    3.32807873893499

