116
CSD_code = WABXAY | q = 0 | S = 0 | Stoichiometry = C50H60N4OTi | MND = 8
Ti        2.17476914486157    1.08131007395149    4.47291470713977
O         2.60853398872223    1.30048083620514    2.85802737927743
N         6.80788119623437    3.07732176481372    3.38546475375530
N         2.24029569268567    2.83639015488084    5.12471360777631
N         3.72211495347938    0.47420168770130    5.33738932520621
N         2.90553854026128    1.87321688766458    8.53498831930091
C         5.12544113943173    3.22241691472928    5.07308451399646
C         4.33014726012285    3.91647226924360    6.18493871648041
C         3.92985638244874    5.35461680698914    5.99180979764577
C         2.72026345641998    5.61073873602444    6.47155182430003
C         2.07984565055910    4.36453904648868    7.02559469998956
C         2.89685489627425    3.22700326089223    6.36175924519420
C         3.05851629163135    1.96873962761791    7.16733879233538
C         3.55651137338611    0.77184281535360    6.68383878255865
C         3.70809353390445   -0.10366435311569    7.81544963514774
C         4.12935188953064   -1.42550191704279    7.96298510793937
C         4.13983248162987   -1.99221787793574    9.22085792828800
C         3.72676710261579   -1.24171476234685   10.33305000853318
C         3.29764617910278    0.06187636523108   10.21814410273595
C         3.28837266852414    0.62988013590724    8.95087228867871
C         4.57851934110438   -3.41316196330968    9.42215124658376
C         6.22184021952707    4.00938013393037    4.33634375556808
C         7.32137525945669    4.47283049612519    5.26027376756858
C         7.54609279382266    5.81883476877370    5.51153407256057
C         8.56593118942551    6.21747852843494    6.35937755582341
C         9.38087099821097    5.27188109360055    6.95552394698655
C         9.17709528489578    3.92632823034811    6.69272587234411
C         8.15658948352508    3.52967013813403    5.85003037378566
C         5.12041951682516    3.84931031048117    7.50372169639118
C         1.99544839892043    6.91088589397981    6.49392050708128
C         1.68478090229313    3.82164754366477    4.29805204537278
C         2.44129495465154    4.72692130175355    3.53973518363608
C         1.83591826796496    5.66558174015090    2.72799635956318
C         0.45198193879941    5.76009248300511    2.63192163846583
C        -0.30836696041286    4.87568591653598    3.38387935433651
C         0.29040941120549    3.93352677017813    4.20081171641088
C        -0.18796950720021    6.77640140676211    1.73530470369291
C         4.85196852867670   -0.15140586923083    4.88686674057635
C         6.06416744961919   -0.16827331204348    5.59636815828786
C         7.19249146521915   -0.74258555789166    5.04887969230760
C         7.17147077387060   -1.32873201235297    3.78954652652943
C         5.96378655230719   -1.34513750018637    3.09815122527695
C         4.82545042143260   -0.77979816214129    3.63190858255974
C         8.41347374968628   -1.91150704257305    3.18348989302112
C         7.74939437854744    3.60980723905609    2.42103434293484
C         7.10763152937170    4.46800745326894    1.32095888592252
C         8.49999807838603    2.43029510402420    1.80483602126338
C         2.59444274923041    1.51528420485951    1.48882758998969
C         1.24596220527536    2.14523860183260    1.09025034076872
C         2.77746561404197    0.18708438783447    0.72542871223549
C         3.74588814829079    2.46116796812436    1.10559413010483
C         0.93112918485921   -0.36665052003378    5.97515443177785
C         1.24703653183359   -1.13479367732953    4.83893813218393
C         0.59877635556732   -0.56009883355270    3.73184422226467
C        -0.09373969681854    0.58517196663127    4.17380102011349
C         0.11499115711047    0.70189130511113    5.56850093307274
H         6.08527571816449    2.53661536969496    2.92281504500583
H         2.55324192402076    2.59768328182966    9.13542494884219
H         4.41747403264077    2.84623095871703    4.31921700421996
H         5.61615004516845    2.34976148482894    5.50550761532867
H         4.60228945185793    6.08551192930871    5.58055789852175
H         1.01966114703665    4.29077055222911    6.77668321855501
H         2.17101450466322    4.36250742560400    8.11498988818220
H         4.44117192019113   -1.99222884141865    7.09725138546632
H         3.74590883998858   -1.70928941024630   11.30700722763874
H         2.97928278036237    0.62466183749627   11.08364898026220
H         5.35171531539201   -3.47032785871215   10.18718818449262
H         3.73958999887237   -4.02685484422490    9.75092842672627
H         4.97061785600116   -3.83117042118819    8.49841144203669
H         5.77669563275769    4.89492636078970    3.84352448064355
H         6.92381371965297    6.56678205773398    5.03888108868079
H         8.72716131806672    7.26898177172272    6.54939262174709
H        10.17762928678053    5.58238391781745    7.61568702058171
H         9.81987616923103    3.18616407066179    7.14702446262717
H         7.99949814412793    2.48620106234936    5.62524169515910
H         6.02973281964737    4.43690157810861    7.41096386500492
H         4.53970439316425    4.25972735372293    8.32645127417343
H         5.39838064769603    2.82655337770590    7.74557182325457
H         1.67291060937899    7.15338617291110    7.50627498775525
H         2.62947833042661    7.71205945239386    6.12381334256214
H         1.10714212072814    6.84803314301734    5.86449817826696
H         3.51690777311583    4.69759492272059    3.59173945802057
H         2.45103489486700    6.34577840680413    2.15441802208605
H        -1.38785359470158    4.93291478090895    3.34161308279350
H        -0.33350838933956    3.28355208641324    4.79963692811640
H        -1.23359137377300    6.92133260211592    1.99602203525713
H         0.32825717309327    7.73193266623682    1.80562300201491
H        -0.13878439614782    6.44630398359315    0.69697011870609
H         6.11146553184400    0.27761410912571    6.58055821018094
H         8.11521149852245   -0.73202673604079    5.61307782985244
H         5.91937097305158   -1.82103478054421    2.12687416197885
H         3.87788378836189   -0.81389978793569    3.10317317931687
H         8.17573369760149   -2.77405671111233    2.56388160226235
H         8.90756500194756   -1.17110156961564    2.55207990344011
H         9.11578875059252   -2.21731662659945    3.95575887394071
H         6.58036315252469    5.31669108742538    1.75083244002225
H         7.87191615874743    4.84936761061725    0.64867294377788
H         6.39958809689653    3.87590733533821    0.74425646279576
H         8.93963427956318    1.82684635613061    2.59363319297944
H         7.81442879442657    1.80486292619693    1.23666474427053
H         9.28717756160061    2.77947192545662    1.14172354086303
H         1.23240283822562    2.36980804323792    0.02638344602281
H         0.43610533716768    1.45329521921822    1.31571637893443
H         1.09028711553775    3.06455633930586    1.65131593085693
H         2.04426451830518   -0.54376767474297    1.06021107539463
H         2.64540388187828    0.35176917727440   -0.34119776957071
H         3.77488250646386   -0.21131477272736    0.89696100338113
H         3.62444237534429    3.41237872315604    1.61828884564755
H         4.68965136708850    2.00702215705147    1.40507136684992
H         3.75758478060045    2.63122768350059    0.03167716534034
H         1.17082562676784   -0.62666962619026    6.99825783899627
H         1.79430852213995   -2.06952183431100    4.84189834626371
H         0.53882942952317   -0.99064930758269    2.73986811473699
H        -0.78979767933786    1.16810595537810    3.58154421673553
H        -0.39206306764992    1.38802968380777    6.23836609542975
H         8.46121585775480    4.22901485432187    2.98101519296239

