43
CSD_code = WABYUV | q = 0 | S = 0 | Stoichiometry = C16H18N4NiO2S2 | MND = 6
Ni        8.71938040961249    6.93136078478598    0.00046288746642
S         8.75756222015092   10.32785060696477    2.80461885837481
N         6.90109246916675    7.48848933690272    0.38156437958935
N         9.30715111836690    8.02639881992101    1.38095974749438
O         9.02970493349937    9.06225350900104   -1.27468367185473
H         9.51870113113163    9.59751239758073   -0.63975832740647
C         7.83553998445805    9.72233290986671   -1.64971961167205
H         7.98448025851867   10.18174916650691   -2.63695358540129
H         7.57621256123212   10.50839409349029   -0.93244673767575
C         6.69881584737934    8.69493175744492   -1.73515764829780
H         5.88687047298289    9.09845408899837   -2.33916028393915
H         7.10679164278027    7.80004845632251   -2.21333043038015
C         6.19556050042224    8.33855183647422   -0.36928587296346
C         5.02016253309832    8.91441908218526    0.10665315268338
H         4.48352052920612    9.61256814459687   -0.51725995231586
C         4.55398804797768    8.59296103113461    1.36637304927095
H         3.64908247543522    9.03865893851631    1.75073867766389
C         5.27699894494547    7.68165372883165    2.11949634256651
H         4.95256796220116    7.38585328026577    3.10392402347346
C         6.44231476604395    7.16121570359089    1.59051219676095
H         7.03509104546188    6.45416471135035    2.15512880215052
C         9.03536426208587    9.00750657857279    1.97710328553821
S         8.67977818143017    3.52895251006455   -2.79510691232781
N        10.53761450497220    6.37505411278591   -0.38213081312565
N         8.13158761005409    5.83505464191770   -1.37894238059977
O         8.41185535184846    4.80267188541849    1.27860324542631
H         7.91971844578513    4.26605513114248    0.64731768495655
C         9.60665154765478    4.14195134507232    1.65059000229744
H         9.45983899368462    3.68151609597951    2.63770256878421
H         9.86434430690254    3.35660192035655    0.93191366359724
C        10.74368062905543    5.16913179212777    1.73447816266459
H        11.55654929426660    4.76535898172803    2.33705836882949
H        10.33662849313034    6.06396761006381    2.21351160767413
C        11.24476978818173    5.52562575620267    0.36783260247164
C        12.41981737578859    4.95037817820336   -0.10975916906044
H        12.95791350633962    4.25280945533353    0.51354582617587
C        12.88378292665903    5.27160262914953   -1.37034781107761
H        13.78833545164781    4.82629316483710   -1.75601256831511
C        12.15899596536205    6.18217474974840   -2.12266594887556
H        12.48155988178094    6.47773031584019   -3.10777904078960
C        10.99431978807132    6.70220265234822   -1.59191857884735
H        10.40039168199976    7.40886207534076   -2.15577955212442
C         8.40201215922917    4.85177603303164   -1.97189023885732

