52
CSD_code = WABZIL | q = 0 | S = 0 | Stoichiometry = C19H23MoN3O6 | MND = 6
Mo       -1.96571927185941    3.18329920319770    4.03385679950107
N         0.36223597434480   -1.99967517557242    0.90927188254910
N         0.07268346414622    3.80877342040245    3.65732572784246
N         0.34435607156729    5.08733418000680    4.04465492595138
O        -1.20199667956364    1.56575745945365    3.63597177358579
O        -1.75694432740975    4.90786071174910    4.86145893493750
O        -0.61190391496016   10.89192970822568    6.50856395841192
H         0.22665475704697   11.32999905433427    6.31643300541069
O        -0.31958438358035    2.84733942324016    6.27595061916975
H         0.55490819346516    3.21572145121466    6.45645579845219
O        -3.07499926697843    2.67128717564518    5.13457241462080
O        -2.56617270304097    3.67209736822063    2.57622184614115
C         0.52275491691659   -0.75195165924289    1.43186392003134
C        -0.41994156608690   -0.19272154778903    2.30538246460079
H        -1.29340418679768   -0.73296689894249    2.63450320632377
C        -0.29423924448693    1.09770399623726    2.80617679673219
C         0.82836563322659    1.89539398165659    2.44358887423075
C         1.78180865150690    1.31723777848152    1.58750434965065
H         2.64295443573331    1.90533931923439    1.30360760616599
C         1.64481349820386    0.04805916842396    1.09906547114114
H         2.40554157273095   -0.32591315532558    0.43585601245130
C        -0.83063953014036   -2.77458229103688    1.17644383949304
H        -1.69292078585099   -2.10449146618693    1.17679722094518
H        -0.96736302769038   -3.47683898852731    0.34931862132321
C        -0.77182643164084   -3.55197878805486    2.49230590119740
H        -0.00145177134050   -4.31784402207181    2.45359822269804
H        -1.72724500753406   -4.03615343529066    2.67572134469638
H        -0.55424253069403   -2.88386453778400    3.32104847206485
C         1.43424304984769   -2.66139889601189    0.19549187174413
H         1.82136190138129   -1.99883695192081   -0.58444278674606
H         1.01340674023909   -3.53518744556972   -0.30570797966310
C         2.57610822181981   -3.11226440678381    1.10799416546362
H         2.98477725642419   -2.26826490065758    1.65638633001740
H         3.36766526648619   -3.56127406233116    0.51333891997335
H         2.22511861435489   -3.84667592949056    1.82717792213441
C         0.96876108834879    3.21847270736412    2.92452983738495
H         1.86072671394091    3.78540140705078    2.65426282375671
C        -0.68416795261216    5.60855897052043    4.65029892593488
C        -0.63174363607118    6.99386758003375    5.12586619954589
C        -1.75064328683952    7.53698763171477    5.76199127363408
H        -2.62857456393105    6.91757658831215    5.88143610767758
C        -1.73256956267035    8.83585732199307    6.21830049567088
H        -2.58793829779881    9.27179894793183    6.70902165951552
C        -0.59169544196098    9.61905097571920    6.04458170781520
C         0.52515366700140    9.08158733551689    5.40746647935631
H         1.40746059444453    9.69327454475325    5.27043304800790
C         0.50542838413468    7.78044850983761    4.95031200816139
H         1.36133379063440    7.35443129757196    4.45253595373766
C        -1.12904678864537    3.02807016112421    7.42933494927212
H        -1.16396661451201    4.08074021887471    7.72623337785649
H        -0.75100664141045    2.42137065891931    8.25929841949550
H        -2.12847504183830    2.69945630162169    7.14393827993787

