58
CSD_code = WABZAC | q = 0 | S = 0 | Stoichiometry = C23H29Cl2NNiP2 | MND = 5
Ni        2.30094083480768    0.81157874073900   17.85441012805762
P         3.23681970372464    2.49343622204872   18.84796751535968
Cl        1.71145999042246    2.00336472740407   16.19788449406656
P         0.79176011851958   -0.56388396477750   17.15180644921394
Cl        5.61157090798421   -2.89922748293912   20.16510003620046
C         2.67281438984816   -0.25179964582443   19.34803326166019
C         5.38432537766420   -1.32192264047296   13.69363402578047
C         4.67356087551708   -0.24662330973137   15.77159823334663
C         3.82148324381347   -1.06845926314552   19.22511552462117
C         4.20189445229906   -1.88986431091453   20.29095494356733
C         4.82090048408435   -1.43359940746978   14.99337303896293
C         4.38349366643637   -2.70035785720088   15.43239787263153
H         3.90908089371189   -2.79128298897329   16.40010114016984
C         5.53235587154328   -2.48868204617323   12.91354668625911
H         5.96738362070791   -2.39570814966734   11.92847143339376
C         2.33544915929795   -1.13854537618340   21.57300126671627
H         1.75538508754368   -1.17295057062507   22.48456412200216
C         5.02220327478103    0.97493440007711   15.23527192218150
H         4.86081723169395    1.86176319059858   15.82979793871009
C         5.77488666583599   -0.05824638224507   13.20696371992939
H         6.21481094932729    0.00510933289095   12.22227312253416
C         5.58347160292597    1.06733096380023   13.96146807825339
H         5.86395299529939    2.03718241664534   13.57788518151464
C         3.47114586996606   -1.92697858520649   21.46139680281130
H         3.77995773191008   -2.56724608716442   22.27278205646482
C         1.94226508098120   -0.31479033873364   20.53238218253049
H         1.04506804725134    0.28134755681238   20.64532487991976
C         5.12549044162516   -3.70620919180958   13.38018696140462
H         5.24241433850987   -4.59270032990533   12.77405327238283
C         4.53378408545314   -3.80995384584258   14.64713990102917
H         4.19270353596346   -4.77293221032473   14.99871126557487
C         4.53713143810148   -1.03195171396642   17.97259753595223
H         5.43422679888300   -1.64297284496044   17.85740989208009
N         4.10999191870849   -0.27207306792491   17.03570367112938
C         3.50686310210442    4.03007035625546   17.89223482208628
H         2.54821632729075    4.38686181938726   17.52064321602737
H         4.14061597453850    3.81987336745104   17.03331242765843
H         3.97483267326524    4.78619833377541   18.52226211573606
C         0.54118529745052   -2.20514281823285   17.94338964426098
H         0.27900825095554   -2.07495717182551   18.99125579408976
H         1.46589566780115   -2.77665942837962   17.89188313991254
H        -0.25037633776929   -2.75405200026506   17.43523876033668
C         2.33413082459575    3.16564823098468   20.29584519310305
H         2.28516856582480    2.41049627718724   21.07714445609961
H         1.32250629031110    3.43197847067027   19.99398121604048
H         2.84477960721836    4.05041912406926   20.67369440034140
C         4.90306173466764    2.24099118579929   19.57367442086236
H         5.25531270178889    3.16289799190656   20.03411188366231
H         5.59562798398270    1.93947029694775   18.79000208618412
H         4.86063826445301    1.45176968466076   20.32138873771389
C         0.93247710505499   -1.06888924502306   15.40012709310104
H         0.07799372832524   -1.68869585830015   15.12911596255188
H         1.85340111178450   -1.63115757692081   15.25481477206825
H         0.96383268480453   -0.17902601464496   14.77522471809395
C        -0.90853576738749    0.10856677358585   17.21181708964477
H        -1.60815316328382   -0.61274048861479   16.79053540279558
H        -0.93615281957199    1.03425920200341   16.64008193505816
H        -1.17903049335607    0.32053354868468   18.24521215616272

