59
CSD_code = WACDIO | q = 0 | S = 0 | Stoichiometry = C23H30INO3Ru | MND = 9
I         7.09898643590547    8.07490367377021   14.09288907489715
Ru        4.84540979450011    7.28448812809746   12.89474173887402
O         5.87715207480917    5.72671544747640   11.98054209770867
O         4.97190101164852    6.02618641600124   17.51562915244723
O         4.72515961697100    8.14272517921153   16.79901034186392
N         4.54513194083326    6.03558400153995   14.49475122727961
C         4.05031213211042    9.50654437603181   12.64432072460621
C         2.94541328480433    8.71747994995121   12.97910615136974
C         2.65938003654657    7.52839667582535   12.25447664062589
C         3.41856984002490    7.15673675263247   11.13561897113364
C         4.51669428264749    7.98571202720201   10.76738140065918
C         4.84150079216987    9.11002004577099   11.52135814802666
C         4.35729943878696   10.82168911348359   13.32116555652487
C         3.63261766015242   11.93784404163024   12.55871652954707
C         3.98507476856208   10.84477827601623   14.80213875345962
C         3.06518143441782    5.96857395558914   10.29462310938202
C         6.43018134836050    4.72244066235274   12.54829723555424
C         7.30918416053355    3.91804604284625   11.77844500488123
C         7.95749053029573    2.84363998001256   12.32185478981158
C         7.75253494335788    2.48518179094043   13.65839038214277
C         6.88018033817386    3.21310472747382   14.42102235549629
C         6.19516215915297    4.33061127711650   13.90271268867804
C         5.24754009932751    4.97340119066947   14.74192015374937
C         3.63603952609915    6.47638429731958   15.54865881793857
C         4.51888129448741    6.83709009132668   16.75211591260285
C         5.65570396733782    8.63590511162949   17.76265401068186
C         2.58006717929910    5.42885335606184   15.95404304279252
C         1.79618080661448    4.93915702617038   14.74040209458804
C         1.64104852579499    6.03140559706123   16.99590041950865
H         2.26278621685532    9.03937013873774   13.75712886464309
H         1.76772811766009    6.96155950942805   12.50104442523132
H         5.08740703520676    7.74341033348191    9.87678933155242
H         5.66581806212438    9.74691533868318   11.21381261970739
H         5.43704164641149   10.99383663931595   13.24510764254620
H         3.93273811920469   11.95305789401692   11.51278491185449
H         2.55433344352369   11.79307026368677   12.60570990103965
H         3.87123517465981   12.90207956318715   12.99994960936136
H         2.90566144776806   10.84899417569276   14.94285487173785
H         4.40914033368091    9.98370222943191   15.31338191779724
H         4.38556064457150   11.74474432532328   15.26153126718923
H         2.79214666569201    6.28892739627830    9.28845055383727
H         2.23356942864470    5.41350767484846   10.72462639774009
H         3.92527436304901    5.30288092551346   10.21318187048763
H         7.46960005995780    4.20932066837696   10.75108444064483
H         8.64142116739865    2.27005463978425   11.71302095787960
H         8.27712249674142    1.64110193844162   14.07785204030108
H         6.70746292695712    2.94454081779713   15.45354818359550
H         5.10848670314235    4.48861941249729   15.70725097492706
H         3.13714688098631    7.39055055174249   15.21181485965940
H         5.28919466794955    9.60737375056645   18.08705148924696
H         6.63073766209806    8.73792223425638   17.28327597408943
H         5.72469145022247    7.94336867967735   18.60204004936382
H         3.09948400015434    4.58106762511571   16.40979748106298
H         1.17201705227422    4.09231062610990   15.01497811057151
H         2.46972158652679    4.62489098124817   13.94454078113251
H         1.14792406951849    5.72931452632633   14.36607462188700
H         2.19184724997258    6.32521060804666   17.88585433375187
H         0.88911360971743    5.30133587104359   17.28510168711811
H         1.13300829361959    6.90806145015196   16.59747330321282

