63
CSD_code = WACDOU | q = 0 | S = 0 | Stoichiometry = C29H30ClNORu | MND = 9
Ru       -0.55594288562428   -4.31968232593228  -12.32645959486829
Cl        0.73625000483901   -4.89283328407724  -10.46078118634317
O         1.08123440730091   -3.32568141947629  -13.10534347876948
N        -0.98088681807823   -2.71758844041523  -11.18546527559214
C        -0.31262102215485   -1.61345493974388  -11.14849532460815
C         0.82401201224072   -1.24822171542481  -11.92514174386193
C         1.34653738050311    0.04831593396119  -11.74741419362078
C         2.42975874083605    0.49795544358216  -12.45295347434755
C         3.04239144228923   -0.35331600222323  -13.37870703342779
C         2.56859024021125   -1.61925897110063  -13.58122703856234
C         1.45422985200948   -2.12756347055090  -12.86027971088335
C        -2.07854123041178   -2.94092475227854  -10.25353700243088
C        -3.41676182737088   -2.65616190622983  -10.90978163864766
C        -3.52078595855974   -1.63518417027165  -11.82132889578755
C        -4.73683393686550   -1.33523076735671  -12.45044942523805
C        -5.85559002931967   -2.06114464127188  -12.15966142580145
C        -5.80409803417867   -3.10339844872462  -11.21096173000854
C        -6.95982494177947   -3.84732896975921  -10.89093718001895
C        -6.91830889777381   -4.84814554839789   -9.96319782028401
C        -5.71127246111846   -5.14616222234997   -9.31463532807773
C        -4.57273401284330   -4.44679906106515   -9.60496320802304
C        -4.57440152992698   -3.40681323756882  -10.56286390472883
C        -1.98326789731030   -2.15767775084977   -8.93628611891266
C        -1.55539461700076   -4.51981432355726  -14.41177583445908
C        -0.50915389461992   -5.47694961102425  -14.28168732998559
C        -0.49743544103627   -6.40693740366951  -13.24197362143866
C        -1.54715451020347   -6.42735086683676  -12.27787404933646
C        -2.60244639801908   -5.51525019163279  -12.42280115746536
C        -2.58893554363044   -4.55216237214588  -13.46332640423381
C        -1.52943039255537   -7.43954279438214  -11.17485599057792
C        -1.57875853939827   -3.56082388377831  -15.57826257466856
C        -2.71250891045949   -3.92431339516165  -16.54166262984148
C        -1.70946391199176   -2.11430500434776  -15.09739020821528
H        -0.63092009510656   -0.83994624229046  -10.45200025399106
H         0.86746159232103    0.69779860584464  -11.02702967622346
H         2.81201910669685    1.49495154682479  -12.29767767940812
H         3.90018809574139   -0.00695284201346  -13.93720866475572
H         3.03826632456313   -2.28812787437405  -14.28647175322032
H        -2.00253399890981   -4.00745013162921  -10.00168031581243
H        -2.64728926997845   -1.05283728727834  -12.07691475197259
H        -4.77539852231935   -0.52712784340209  -13.16644587107185
H        -6.79753061735959   -1.84494407214276  -12.64288290800999
H        -7.88353336304197   -3.60367281904516  -11.39626359135661
H        -7.80708900037514   -5.41196362815738   -9.72216749762360
H        -5.68603958067374   -5.93544529628415   -8.57753921208166
H        -3.66060596249058   -4.69752814544565   -9.08597545810589
H        -0.98422740213954   -2.26007396958036   -8.51915470862435
H        -2.22191851178248   -1.10532120027075   -9.07468474722300
H        -2.70087566826604   -2.56920318891798   -8.23111538166840
H         0.27227937866068   -5.50608377707968  -15.03441246687872
H         0.28514907474223   -7.15549486596986  -13.18774437243064
H        -3.46418271421793   -5.57644493441801  -11.76757010900330
H        -3.44446677385644   -3.89585598468166  -13.57177468023037
H        -0.73398584088465   -7.18158753497212  -10.47082977580934
H        -2.47730162446456   -7.45490349766593  -10.64097013793073
H        -1.32171835771985   -8.43360468527651  -11.56810980135012
H        -0.62660798084970   -3.65451091094880  -16.11221668593277
H        -2.60264366732891   -4.94791767675338  -16.89414863113782
H        -3.67904580370838   -3.83104293966916  -16.05100284179236
H        -2.69773046962853   -3.25944518785724  -17.40194918674860
H        -2.68751314007115   -1.93733878897867  -14.65569366303087
H        -0.94423120142352   -1.90216767060912  -14.35072615379074
H        -1.57862444413305   -1.42810664289929  -15.93095748970047

