59
CSD_code = WACDAG | q = 0 | S = 0 | Stoichiometry = C23H30ClNO3Ru | MND = 9
Ru        8.20203715381517   10.05832970789928    6.54889292919359
Cl        7.91435197594863   12.05124122341790    7.72865615838053
O        10.22885443938598   10.41960401778589    6.66453446589882
O         7.47200716150350   10.89958129423395    2.06203254887434
O         6.23730771465984    9.32037034143990    3.05907687335917
N         8.08501426306353   11.22913114777520    4.90958007016520
C         6.31372083603545    8.92344008093946    7.48449736035388
C         6.39969455434328    8.54063082165657    6.14266422702542
C         7.60631756057953    8.01709052030535    5.60327242622510
C         8.73021069899685    7.81692258369661    6.41265680096752
C         8.64869975741823    8.20907485018983    7.77921446339158
C         7.48207469717964    8.77884143215246    8.29186035169581
C         5.01875619682217    9.39767842768985    8.10311920945860
C         3.97600360101930    8.27625774445374    8.06357422421677
C         4.50132192310198   10.66108371645917    7.41288021723262
C         9.97635487990793    7.16173121836616    5.89873191977538
C         9.07589463070969   11.86140931013117    4.36471229082312
C        10.42482193659997   11.92733032330378    4.80468380205229
C        10.92369892687276   11.20288044318981    5.93290899518773
C        12.30684369422753   11.33675970025567    6.23275276081843
C        13.12997011049249   12.14135522687682    5.49658520921715
C        12.63476828594341   12.85516108765706    4.39926167308672
C        11.31232103170452   12.73979800322385    4.06885270387646
C         6.77107439358579   11.33957207316281    4.28331079199034
C         6.77076994616139   10.40038108593885    3.07834889424818
C         7.60677199719894   10.07371038914131    0.91203524808136
C         6.33058599081313   12.76531403752709    3.88506670877608
C         6.41315629836093   13.70710571791753    5.08029844838972
C         4.90190449422514   12.70551351374266    3.34735745087531
H         5.52893754891320    8.57667472598235    5.49921057955801
H         7.60866072261348    7.68103609351558    4.57258816492075
H         9.49564437534576    8.02615534141100    8.43195184626967
H         7.42635886589479    9.03093897842749    9.34625129986514
H         5.21833405472888    9.64928615965842    9.15027247724250
H         3.72249943959389    8.01821925905553    7.03782809226264
H         4.35220786723856    7.38407350701422    8.56033449985640
H         3.06929978500974    8.59686833770846    8.57068515801478
H         5.28523925875381   11.41869091565356    7.41048173343676
H         4.19372471358677   10.44777559851880    6.39062979894128
H         3.64193527285175   11.05354504905718    7.95106416428986
H        10.12964371846899    6.20476176196244    6.39911314689177
H         9.91494473160244    6.99101332490112    4.82612946215537
H        10.84081311306856    7.79280675758868    6.10476568958958
H         8.88250222687487   12.41557287409886    3.44795194778514
H        12.67657909224442   10.78616548265995    7.08475746600300
H        14.17289260547837   12.22941085417878    5.76516858902071
H        13.29227501229732   13.48924742510418    3.82491363717859
H        10.91876276866400   13.28814154022882    3.22384990229451
H         6.04294757647365   10.95750438244431    5.00704087034141
H         8.31423951501608    9.26628933750600    1.11115099184695
H         6.64115418861838    9.64202519034207    0.64127984029251
H         7.97972494417512   10.71470348743505    0.11721937155600
H         6.98168650957737   13.13236724437408    3.08666322579211
H         5.70327153965834   13.41067369802808    5.84779421721369
H         7.40364878987793   13.69157924918189    5.52733837934821
H         6.18532070543581   14.72376231781376    4.76988866640473
H         4.82938294977889   12.03970985789666    2.48955572462708
H         4.22048017474041   12.35062882238958    4.11742935040392
H         4.58047878271396   13.69717238533049    3.03917248296988

