63
CSD_code = WACGAL | q = 1 | S = 0 | Stoichiometry = C26H34AgNP(1+) | MND = 2
Ag        6.84428548509345   12.45395111028194    9.29873317978467
P         5.62975475309959   14.47998766946860    8.48010379675361
N        10.10284687699349   11.84936896958450    9.82388568761909
H        10.92217809137328   12.20819606515309    9.35988136643067
H        10.29479126584009   11.36364051894396   10.68540622144639
C         5.05220107907623   15.51906115261643    9.86660142538978
C         5.43199911494661   15.19450866235544   11.17459491134781
C         5.05765068144379   16.02915835414386   12.22408696215305
H         5.36229412789913   15.77266473484270   13.22800070946854
C         4.29740582524195   17.16102567014189   11.99759431161755
H         4.01406497862084   17.79474740830889   12.82316352393507
C         3.89489633008749   17.46899390450388   10.70872178024721
H         3.28969072991855   18.34265981165793   10.52215653149736
C         4.27461466530315   16.65796513953559    9.65626191257254
H         3.95775183119647   16.91308173624575    8.65872851618383
C         6.19122513181426   13.97297535957195   11.53652247126432
C         7.53724113314412   14.04917388812733   11.89447549513809
H         8.05471333628956   14.99473508664194   11.82020567705582
C         8.18797769829423   12.94214575327130   12.41952689938888
H         9.21944323428159   13.02844407677343   12.72663955596016
C         7.50358725863313   11.75150034509054   12.60212313130925
H         7.99736743188225   10.90738807129873   13.06112350470506
C         6.16902623277379   11.65496261191264   12.23195233540374
H         5.62168030216710   10.74065447044968   12.41007775198968
C         5.51377975145771   12.75632343939427   11.69631333980861
H         4.44819917851885   12.71655859203147   11.50831829790272
C         4.08934145592003   14.06460143657531    7.45258459423459
C         3.56111009299234   15.12704346001855    6.49421434371085
H         4.30052297884852   15.39194476192185    5.74351399443013
H         3.23658073008391   16.02509463501455    7.01017641196897
H         2.69391616675222   14.72340674315417    5.97327396797978
C         4.45852232971171   12.81120731754256    6.65284913940164
H         4.83524119476863   12.03135867659706    7.32495098274846
H         5.21751216707971   13.02296596083140    5.90425583762260
H         3.57876859876642   12.42484668420273    6.14230477731128
C         3.01862039499432   13.68638861527041    8.47835392836045
H         2.16060846355242   13.24525757879468    7.97548642771839
H         2.67636408850882   14.55303789390259    9.03917788842284
H         3.41817720550735   12.95045644779395    9.18079872902516
C         6.85660612016923   15.61865427134825    7.59501276180005
C         6.38180253723141   17.03712049184170    7.29855724778420
H         6.16323766947978   17.57886653570376    8.21510131362314
H         5.50569498568825   17.05180513490686    6.65855486019909
H         7.17821104017547   17.56953325471332    6.78080121234894
C         7.29611101789566   14.91826229086879    6.31049756521280
H         6.51891662929121   14.95515417735733    5.55177693358466
H         7.54446327094879   13.87431218797114    6.51538455421748
H         8.17906910700671   15.40837079420042    5.90452817155554
C         8.04113227974021   15.68492530451679    8.56476714795808
H         8.86427840646591   16.23557934036039    8.11442404927794
H         8.39469812075295   14.67528871631112    8.81498203768172
H         7.75582523010458   16.19278577596639    9.48476714809557
C         9.12367930189172   11.31607396860023    9.01850408522980
C         9.06860031975491   11.62500239162059    7.65025899789523
H         9.85166682486485   12.23290365709273    7.21927517954612
C         8.09112371001309   11.07239719157213    6.83987684016075
H         8.11029606106026   11.26611373069753    5.77796050082404
C         7.11968963637863   10.23455063720082    7.37211730797025
H         6.38822007758786    9.77178892531324    6.72842640946064
C         7.14261050928889    9.93931573862125    8.73155055947520
H         6.44561285821352    9.22035178237481    9.13934502150277
C         8.13888569332353   10.46488567245578    9.55217768136473
H         8.23821619979905   10.11947521435930   10.57141209399178

