48
CSD_code = WACMUJ | q = 1 | S = 0 | Stoichiometry = C23H20N3OPd(1+) | MND = 4
Pd        7.79017687084928    2.86374013404168    3.70287842692944
N         6.56227715798550    4.12506810978835    3.00007149392438
C         6.72539630193578    5.43141847231652    3.26568834623952
C         5.85605533396015    6.36426090806480    2.70586469147723
H         5.96808067529341    7.41684591154235    2.90438803512290
C         4.84178317044691    5.91695671621374    1.87023639710627
H         4.16161577489896    6.62546440795637    1.42531997558973
C         4.70578372555795    4.56231147669858    1.59544840600773
H         3.92724223453309    4.21802026519624    0.93557827248088
C         5.59509651801912    3.66776737611502    2.18251406467770
C         7.88974573973740    5.71035695018556    4.11550033173448
N         8.66738476386895    4.63652987480209    4.41317805076326
C         9.78037072933494    4.81717090680249    5.11647672551594
H        10.37399709720563    3.93258841309776    5.31820898585772
C        10.17485350301743    6.05910837961493    5.58715632236340
H        11.08836389876292    6.15590099282979    6.14986919291125
C         9.37006293037656    7.15945984888955    5.32697646919373
H         9.63625724001124    8.13771754572931    5.69531849978471
C         8.22027154471290    6.98302699926935    4.57779946487554
H         7.58260973540311    7.82261096532456    4.35532746299487
C         5.61859552903804    2.20825828034192    2.02311857335771
N         6.63772107908470    1.57973921509180    2.66568517139024
C         6.75667066291133    0.25826734014358    2.59386835434346
H         7.59780882334985   -0.17185156370916    3.12758653670905
C         5.86622584006153   -0.52183751484704    1.87309582345849
H         5.99756116908808   -1.59042389302344    1.82930254311607
C         4.81287503512396    0.09883702772296    1.21471288671338
H         4.10061156626980   -0.48089407236230    0.64895841075177
C         4.68678578653449    1.47594063475450    1.29139931287612
H         3.87551070370776    1.97731053147599    0.78961094373919
O         9.06017768519456    1.50532848271962    4.36909792118724
C         9.23592350606971    1.73426386748061    5.65249318936312
C        10.48013126783073    1.51919097740957    6.26952077185271
H        11.28490580979886    1.13650920408748    5.65891207992535
C        10.68161657493250    1.77766519139866    7.61207195183698
C         9.62756403324272    2.28267627607377    8.38970745082837
C         8.38828040349665    2.48147724634379    7.79454629302219
H         7.56719168398485    2.83949541905402    8.39933905627134
C         8.17359961456473    2.20698149777238    6.45760381288374
H         7.15654634700045    2.27620677565802    6.02464661985288
C        12.02171007154342    1.52678365372388    8.22801221431412
H        12.72341050730931    1.15081502646561    7.48900950663151
H        11.93837149588865    0.79474961336182    9.02977823933719
H        12.42574528085196    2.44109926241072    8.66074268738082
C         9.82309170894471    2.57443474266485    9.84346604734754
H         8.91177794630077    2.96843107337937   10.28481981746054
H        10.62187692874951    3.30091181804383    9.98887074219288
H        10.10338799321685    1.66950923187763   10.38112342629709

