46
CSD_code = WACMIW | q = 1 | S = 0 | Stoichiometry = C17H23CuIN4(1+) | MND = 5
I        -3.31676492495276    4.80777866626925   -1.03229943727211
Cu       -3.17929918299302    3.61123695953345    1.21906526249142
N        -4.74747075051991    2.21137341853526    1.82513874845345
N        -2.39965441326916    1.96280470148323    0.58502129193072
N        -1.23613883395292    4.14678491048764    2.19887372615776
N        -4.16683067214693    5.01846124319304    2.23677528492595
C        -5.90381111336043    2.39155481247039    2.39487307590874
C        -6.87117441065136    1.37888815609831    2.57563515439450
C        -6.51323294708070    0.06748927478956    2.11123078075836
C        -5.28062900313303   -0.04162373265576    1.48986411619258
C        -4.40197017142197    0.97959430861448    1.33684894586617
C        -3.12596122719348    0.92450472959765    0.67293667996984
C        -1.13385807980544    1.93679161464858   -0.07772394384279
C        -0.01088099510403    2.34147694481521    0.87749240074077
C        -0.10232030855065    3.79493746342383    1.32404351744479
C        -1.11616202201676    5.59439589809947    2.44751351530672
C        -2.26683321976387    6.26003310769753    3.19477498775811
C        -3.54600363278432    6.33793969576935    2.37524263145584
C        -1.16783777220936    3.40165768641622    3.45539969194277
C        -8.12380943497909    1.58216225300825    3.17728930486417
C        -8.99039545139933    0.53097417160759    3.32834855226046
C        -8.63904725778310   -0.75518836364831    2.88768353882063
C        -7.42900677888789   -0.98805971923171    2.29019529750797
H        -6.13896763035015    3.38364135031023    2.75859422928778
H        -2.81774923804912   -0.02653413569762    0.24638392854867
H        -1.17032418980887    2.64720828757334   -0.90880029617827
H        -0.93160805998394    0.93785712928655   -0.48263323160435
H         0.93260489552461    2.22790881127696    0.34213104247762
H         0.01287864327811    1.66024490023145    1.72882400569465
H         0.83440280670144    4.05079245674519    1.84007241223240
H        -0.17352220099647    4.41911302449786    0.42956246082881
H        -1.02399751175449    6.08772829889957    1.47699562228829
H        -0.18912829674610    5.78099781945415    3.00781363537510
H        -1.94881236789523    7.27881644324514    3.41937198731710
H        -2.46411727339359    5.76847491205931    4.14893151167571
H        -4.24239085806497    7.03268655888410    2.85979321497963
H        -3.33090485241634    6.72122472541379    1.37557934162463
H        -0.20383094689694    3.55286574532413    3.95476318240898
H        -1.95814334163820    3.72490014648858    4.12844565815145
H        -1.30507191769227    2.33873014049965    3.27042541108320
H        -8.39368493010917    2.57210594710950    3.51440761663268
H        -9.95324120677510    0.68707658033179    3.78927393677398
H        -9.33864214812848   -1.56572809837341    3.02112412652811
H        -7.15478842123472   -1.97258277850683    1.94557662306178
H        -4.39008020348700    4.65157757524586    3.15917056571822
H        -5.02528814612401    5.11422595867602    1.69796989105786

