72
CSD_code = WACNUJ | q = 0 | S = 0 | Stoichiometry = C33H31MnO5P2 | MND = 6
Mn        3.53195769111491    8.05896785494873    2.96845583831529
P         5.04069269841681    7.49848226589324    4.56554455833410
P         5.10710774762161    9.26357603035040    1.97379894172150
O         1.58423664261900    8.62059518909181    0.86779478799687
O         2.16954419017859    5.51093116343727    3.23525420576957
O         2.00544474582555    9.72093462616552    4.84282902997458
O         5.29685294054541    6.02043983478531    2.61175796255494
O         4.00703818238167    6.36579369417152    0.82639044863582
C         2.37129082488646    8.42645254974253    1.68432309987397
C         2.66725534026834    6.54947214975978    3.21832590318651
C         2.66244204851375    9.13609689618790    4.09796736057631
C         4.40105563776564    6.65720083086961    2.06335332573781
C         4.61099450948050    5.23162267834930    0.18824214884706
C         3.98898360695643    5.07581728747791   -1.18501031706629
C         6.87666983781361    7.52276012468725    4.36655890354806
C         7.34475498763306    8.75878565604642    3.60659322748689
C         6.85341222038408    8.71631911336659    2.16039595316672
C         4.67677035809971    5.93371556957157    5.40182406225383
C         3.44392060617008    5.87886291018676    6.05143076479379
C         3.04448208957883    4.72279382975552    6.69109134982840
C         3.87127751268916    3.60933441793722    6.68095348284092
C         5.09292295057586    3.65930684595167    6.03222096067371
C         5.50056929436359    4.81773740283498    5.39156513793033
C         5.04452400437816    8.64240661366195    6.00829097760380
C         4.96800242121798   10.01068463506145    5.77268753959644
C         5.06740769532338   10.91589423131625    6.81312109265192
C         5.24424564451836   10.46108893655513    8.10846624629909
C         5.33306038696484    9.10047649956282    8.35296219476255
C         5.24316124844351    8.19576721252291    7.31080115762149
C         4.95393793021904    9.30660379133826    0.15292913348375
C         5.70433949539991    8.49721174513765   -0.69262571980172
C         5.48509427237274    8.52484107488655   -2.05900544441647
C         4.51698531398026    9.35535698442502   -2.59578398744601
C         3.76754920185657   10.16676840773196   -1.75981841308458
C         3.98274227065842   10.14181229898273   -0.39560164938106
C         5.21583232439459   11.06932456805008    2.28078099290504
C         4.02332330425901   11.71986305712220    2.59062918099953
C         3.99360477186580   13.08599808599878    2.79701294432128
C         5.16294304585008   13.82242797783913    2.70299953845730
C         6.35255262641628   13.18503643367811    2.39466349693474
C         6.38298810989186   11.81813421712299    2.17833317777730
H         5.69362053812799    5.39401079502569    0.12184051816496
H         4.43777457411370    4.34827414731231    0.81421202012645
H         4.43668863156218    4.22954077199500   -1.69936820660776
H         4.14795732222913    5.97967571657552   -1.76829316208641
H         2.91915133409674    4.91133832418707   -1.08990251711016
H         7.18958849893136    6.62285544575558    3.83465205048657
H         7.29190863973480    7.50998422696893    5.38154601040343
H         8.43925300603707    8.78702702204293    3.61673678764802
H         6.98495040449417    9.66568856205637    4.10506836480019
H         7.46870903240480    9.34011529934111    1.50248309312938
H         6.91288941611969    7.68457628367701    1.79941492165465
H         2.80516274945725    6.75739478565116    6.04372778279130
H         2.08771585056342    4.68446326972147    7.19091049680127
H         3.55813593702574    2.70049225460194    7.17368042354222
H         5.73256050988060    2.78834183707539    6.01906691725528
H         6.44491268221636    4.84155755607668    4.87040883239159
H         4.81641356481301   10.37168561569702    4.76187690604989
H         5.00191795218257   11.97517058474322    6.61019546054757
H         5.31294524863076   11.16360037778197    8.92595155982619
H         5.47517659185184    8.74083838524418    9.36195347924387
H         5.32111860217495    7.13628967067772    7.51299858223897
H         6.45883897034014    7.83329166294374   -0.29766572170708
H         6.07355374778445    7.89045772950095   -2.70707098331794
H         4.34523393462784    9.36806592846357   -3.66199801099103
H         3.00940252606649   10.81636201453675   -2.17153820368512
H         3.39392466475114   10.77466870986475    0.25483958410328
H         3.11349958855256   11.13425788257201    2.68167111040596
H         3.06024104373709   13.57345676467405    3.03676909867728
H         5.14798965000986   14.88903676609377    2.87105745101376
H         7.26700400211704   13.75561561547944    2.32021358754492
H         7.32509005345475   11.35117030103699    1.93545817045842

