62
CSD_code = WACPAR | q = 0 | S = 0 | Stoichiometry = C30H24MnNO4P2 | MND = 6
Mn        2.50841999759657    0.25840613545096    1.71250828199554
P         4.64932928673237   -0.53114375847137    1.71098910112476
P         2.47715355362804   -0.45031403920161    3.85539391467841
O         1.17314818451260   -2.15617922467483    0.75010686232904
O        -0.17662611799707    1.42683457721149    1.80269372177780
O         2.88902469968358    1.57038143697468   -0.88448751177550
O         4.65698352334921    3.46999147282328    3.67355163683304
N         3.47497738852773    1.64159391391652    2.78315728575979
C         1.73186739790487   -1.20568967571625    1.08615613343222
C         0.89582591549470    1.00876442542761    1.81517463604090
C         2.75755922267425    1.05847107527715    0.13594352840624
C         4.05957471002362    2.58006011915653    3.19695020907408
C         4.97564354697912   -1.42521027136418    3.29460277561939
C         4.19928116773541   -0.76880522792718    4.42915972884536
C         5.97836861190955    0.69743939465451    1.56750175343754
C         6.18322451257254    1.22903592469212    0.29604010402059
C         7.13884868574582    2.20600534135297    0.09775263374323
C         7.89411648988081    2.66129164549821    1.16695023790506
C         7.69331133538504    2.13501373472439    2.43123527052607
C         6.73645784085170    1.15703965479937    2.63709330758859
C         5.25850219607373   -1.74337143547910    0.49432042345451
C         4.47103981566504   -2.08948027951376   -0.59628588006231
C         4.94503331381481   -2.98483279910739   -1.53982888666021
C         6.20808753654864   -3.53360401468938   -1.39960123890821
C         7.00361862806023   -3.17960797318452   -0.32029188011638
C         6.53575674999260   -2.28422624651996    0.62177175300922
C         1.81563697452088    0.55657133329785    5.21304102576603
C         1.80086821477068    0.00971037090973    6.49488958977295
C         1.31183367628963    0.74827116980241    7.55482816912280
C         0.82680547599409    2.02976504952217    7.34362316197707
C         0.82643830313934    2.56931656142888    6.06876580633920
C         1.31806421789529    1.83574219400690    5.00310697424910
C         1.58310614300112   -2.00787321616654    4.18582233310983
C         2.13386953872515   -3.21915226356039    4.58254231957029
C         1.31639743852096   -4.32364968752371    4.75761592410825
C        -0.04624063901448   -4.22935509314785    4.53680120496672
C        -0.60153357305025   -3.02427336497660    4.13349179650880
C         0.21050425983671   -1.92340026861850    3.95349736900330
H         6.05004049148102   -1.47625668507633    3.50021547261862
H         4.60372545788791   -2.44441919120038    3.12098125448788
H         4.18775142795742   -1.38514848560823    5.33445765283544
H         4.61749790851774    0.21132264134322    4.68314752200117
H         5.58381893770164    0.86963452214797   -0.53174812729975
H         7.29027134612655    2.61886337108157   -0.88867788784247
H         8.63492974036731    3.43215334373219    1.01562497359002
H         8.27469025643075    2.49598588907033    3.26669982466139
H         6.58106547338625    0.77123620869853    3.63452116070641
H         3.48738023369053   -1.64751815607344   -0.70378892790769
H         4.32840474965383   -3.25096932098832   -2.38534737457887
H         6.57875694610394   -4.23225000033684   -2.13488156330332
H         7.99371771978987   -3.59948340654353   -0.21794153294091
H         7.16490737055526   -1.99256432742155    1.45182906940120
H         2.16126795934004   -0.99788271705107    6.65637588447665
H         1.30525877367078    0.32348431811333    8.54813489540886
H         0.44561116552090    2.60480109303072    8.17444220307887
H         0.44363102380727    3.56493021513495    5.90133723774648
H         1.32689763608995    2.25945675759186    4.00841047722440
H         3.19559478570777   -3.31752271103496    4.76113692532969
H         1.74992356664412   -5.26404343363135    5.06651066207296
H        -0.67579588041789   -5.09592872149929    4.67348462707095
H        -1.66370684306343   -2.94886645396851    3.95457706777711
H        -0.20541847095735   -0.97505144059158    3.62791492676082

