61
CSD_code = WACPOF | q = 0 | S = 0 | Stoichiometry = C16H37ClNOP4Ta | MND = 7
Ta       -1.03916409185684    3.93783817308346    0.43278505274285
Cl       -2.64951960991988    5.21763395353579   -0.72282852904894
P        -3.16579962674385    2.96559559946880    1.29690618321262
P        -1.53732424714762    2.13553104400213   -1.21560802919267
P        -0.74668844404069    5.83945472490441    2.01319544136391
P         0.86365526371483    5.20040848011443   -0.47180863603895
O         1.59407154859374    2.13103722329296    0.38434438583697
N         0.30519874118814    2.51120836429374    3.02748684518500
C         0.62650834885793    2.78598023683669    0.67017541333873
C        -0.06933977406514    2.98921204093043    1.93725843000682
C         1.40864632104547    1.68195961904798    3.38612213958698
C         2.34858533245358    2.41187010805979    4.34512031932360
C        -4.05155528872929    2.11912357634964   -0.08289287328242
C        -4.48714337325048    4.05425525685692    1.93090017591391
C        -3.08180155157354    1.66763138408283    2.58074869344082
C        -3.08489425033226    1.19697605653907   -0.81037803228536
C        -1.88989628302000    2.77156973314819   -2.89099880262235
C        -0.39394565365038    0.75931880427299   -1.58728372438615
C         0.89736652997891    6.69325544439814    1.83396435883549
C        -1.90225298887957    7.25770534273398    1.93663576590163
C        -0.79551144230638    5.46927615140794    3.80285625356834
C         1.81999776862059    5.85797908722386    0.95681570183594
C         0.49157862356222    6.72143406988946   -1.42957069626728
C         2.18999336873109    4.49235600155300   -1.51590682295804
H         1.01943038486737    0.77870796334776    3.87433267374409
H         1.96277475080400    1.37755803550953    2.48244485807932
H         3.17447461179655    1.76267836738019    4.62668680886058
H         2.75145527976327    3.30432674523174    3.86954924435487
H         1.81238236585952    2.70998144117425    5.24379002334934
H        -4.92475030728892    1.57958460266158    0.30110396833040
H        -4.38851562559383    2.91790472508458   -0.75049349803374
H        -4.16411380977421    4.48224927445581    2.87924518535449
H        -4.62770007189171    4.85232309561858    1.20365948418242
H        -5.41540030980919    3.49892111698086    2.06901372990566
H        -4.06596102139009    1.24605973356638    2.78624610431305
H        -2.39592692406343    0.89044065795780    2.24930947832800
H        -2.66534772296833    2.11897533049358    3.47964210601159
H        -3.52314880474654    0.78820352959915   -1.72730524146321
H        -2.79413456900458    0.36572194838582   -0.15947193344800
H        -2.64927030770785    3.54724437126456   -2.80382372207420
H        -0.97616159138041    3.22586619588725   -3.27523249639421
H        -2.22358045993583    1.97533765523190   -3.55702084392435
H        -0.15796366946421    0.23419126782521   -0.66347917052517
H        -0.84453119720755    0.07377546267432   -2.30593587106492
H         0.52912859573499    1.17358108022789   -1.99010333354289
H         0.71400634017544    7.66210596142766    1.36037023572097
H         1.33112807926201    6.86236731899236    2.82421067724571
H        -1.56210541748968    8.07954681154472    2.56739227875120
H        -1.99266004704815    7.58115071292203    0.90142627181255
H        -2.87911243654753    6.90763132744508    2.26768655255511
H        -1.77611238519292    5.05635344660934    4.03552046299316
H        -0.04625642107149    4.70931008060353    4.01297931824723
H        -0.61566908185276    6.36823343566208    4.39301972470720
H         2.18028655153246    4.98147885889689    1.50428425113243
H         2.68281167083629    6.43415683470656    0.60319068440214
H         1.37107365221441    7.35615015881838   -1.54321597307642
H         0.12425542958378    6.41267853650112   -2.40824976246551
H        -0.30931696683926    7.26058702682062   -0.92721037081088
H         2.61936569458991    3.62829361182206   -1.01380458381391
H         1.75095571963338    4.17064084154479   -2.46095075590376
H         2.96224480035388    5.23917195911614   -1.70504557982040

