76
CSD_code = WACVEE | q = 0 | S = 0 | Stoichiometry = C36H36ClIrN2 | MND = 6
Ir        0.02358487403233    4.59776706567740    1.45747308819033
Cl       -2.30278785330454    4.59762337042366    0.75555615915405
N        -1.05797950082117    3.45032585245806    3.96345980546867
C         2.61930591362650    3.06612413383234    0.89443952616425
H         3.64612955959371    3.42691360192466    0.77460686324043
H         2.67742268529504    2.03566955621101    1.24754357768793
C        -0.64030196872249    2.19828438529996    3.42460663461681
C        -2.83156948556481    4.59769692274929    5.13677600416786
H        -3.45084943624610    4.59755850653894    4.23757416261112
H        -3.47630311603321    4.59770463583451    6.01454303874724
C         0.62989013251999    3.90586617386029   -0.48835793992834
H        -0.23100434441154    3.39853503406051   -0.91678388513893
C        -1.92536665534906    3.37734089172559    5.13125657470601
H        -2.50746699034321    2.45402798761381    5.06676193293023
H        -1.33179485286243    3.34670304394993    6.05321676057000
C        -0.73109476359934    4.59774114900808    3.34916481643881
C         0.09466013876865    1.29639284855479    4.19952409597602
C         0.16419679885055   -0.23613600673986    2.32770849811686
H         0.49394101449716   -1.17414035639483    1.90620155205081
C         1.94193366243375    3.89128743242771    1.96799105858054
H         1.96298739799638    3.40185904558993    2.94021116727723
C        -1.01360060762441    1.84091517325106    2.13321945379573
H        -1.67203887680148    2.48614907207798    1.57751729796496
C         1.30686749313254    2.59467197515410    5.96822504708788
H         1.63619691407167    3.29744195364578    5.21668748355386
C         0.07374020280996    0.63029217052114    6.57915846498957
H        -0.56581193664531   -0.19398827275943    6.29739313206014
C         0.48364241240503    1.53559176567979    5.60329583253592
C         1.30256871263912    1.83267513373954    8.24706771937396
H         1.62850790994373    1.94676466614054    9.27026497010226
C         0.48482849972835    0.08473982487498    3.63228081106397
H         1.06562416905709   -0.60126173565172    4.23236969053613
C         1.89893635401767    3.08554319768438   -0.47322964653064
H         2.57553122549277    3.48124765764526   -1.23734458609251
H         1.65440159151949    2.06167196832534   -0.75735687168549
C         0.46914797049174    0.78465628480293    7.89453734051202
H         0.13684486476142    0.08060159482619    8.64332774197607
C        -0.60274159915872    0.64049316029835    1.58152836877600
H        -0.89778356226281    0.38790514663619    0.57466430446434
C         1.72287032326046    2.72978486266137    7.28042612125058
H         2.39110271657324    3.53211193096593    7.55171654732664
N        -1.05807313046253    5.74516770789446    3.96338943907872
C        -0.64032289793174    6.99717322489436    3.42449592318443
C        -1.92561510701060    5.81823191552888    5.13106894867923
H        -2.50789301475651    6.74141548426390    5.06629609326298
H        -1.33216243676659    5.84920233279094    6.05309255288381
C         0.09469454504157    7.89906100124971    4.19937128161521
C         0.16440508865596    9.43143873593825    2.32743249530245
H         0.49425105455465   10.36937660872196    1.90585766944763
C        -1.01359832453357    7.35449217972802    2.13308825655570
H        -1.67213069889470    6.70929688677383    1.57745064756962
C         1.30585014109995    6.60032541530900    5.96849315857790
H         1.63475768553876    5.89713919456045    5.21716273036464
C         0.07407990338568    8.56575575652927    6.57881184685230
H        -0.56484390817747    9.39042687536730    6.29677515443423
C         0.48347910842458    7.65994960475853    5.60320116345340
C         1.30169224986779    7.36279204067134    8.24718898786712
H         1.62734783197481    7.24865232830154    9.27047096226202
C         0.48499931157601    9.11062649832227    3.63202771509702
H         1.06587766939873    9.79661003763292    4.23205561840034
C         0.46915510123178    8.41138738116685    7.89428887274554
H         0.13727315426696    9.11586163104833    8.64286427428227
C        -0.60264307619839    8.55484745399992    1.58132088368874
H        -0.89770591115552    8.80741962317583    0.57445800827771
C         1.72146664823549    6.46514673029272    7.28081110282396
H         2.38891427407892    5.66228970799275    7.55243457518166
C         2.62015662375050    6.12801634571588    0.89332708663750
H         3.64568917162897    5.76428773339314    0.77144981000333
H         2.68190124133211    7.15807155491625    1.24697918121918
C         0.62919588790768    5.29002275506291   -0.48835022083136
H        -0.23213180553666    5.79651615944716   -0.91690053669406
C         1.94222251040272    5.30406938428564    1.96749547026605
H         1.96335800462882    5.79412539800461    2.93939727248602
C         1.89731303741584    6.11175353911839   -0.47309467688327
H         2.57301267389967    5.71906002987794   -1.23958090185772
H         1.65105940535325    7.13613793813198   -0.75385356092022

