99
CSD_code = WACWOM | q = 0 | S = 0 | Stoichiometry = C50H42N4O2Os | MND = 6
Os       -0.00001682848652    0.00027644030176   -0.00013280193995
O        -1.06051305129046   -1.57382482285802   -0.14128922591720
N         1.62699987756943   -1.00424237857016    0.71323073081512
N         0.66782011269340   -0.27968523936873   -1.91635629142416
C         1.91332956487228   -1.24541927760234    2.01932262509056
C         3.16403792617152   -1.95127086618812    2.11234306744560
C         3.61124990238079   -2.12748213625816    0.84812666137891
C         2.64635785550599   -1.51589853558120   -0.02759556499780
C         2.75620501787469   -1.48145697087301   -1.41909052020341
C         1.82520694988760   -0.89429320193365   -2.28418354712755
C         1.97261881164055   -0.81052022351015   -3.70775633056534
C         0.88422114499753   -0.15260679415671   -4.18170892622858
C         0.06556408028360    0.17053512639643   -3.05025665109075
C         1.14114950941847   -0.87307970669213    3.11953253400148
C         3.95165978567333   -2.10311570565711   -2.03110413927064
C         5.21926481372793   -1.58037309683922   -1.79400712594407
C         6.33451909887906   -2.15870552927227   -2.37247369761963
C         6.19858441586205   -3.26820937999770   -3.19017745030761
C         4.94067055864463   -3.79572864783918   -3.42943960130453
C         3.82320855461803   -3.21596229085410   -2.85651601138455
C         1.62399372136114   -1.26392023092137    4.46322142357082
C         1.70310027029679   -2.60642176451532    4.82054104266942
C         2.14773093027509   -2.97164072188200    6.07831597581121
C         2.52381914241874   -2.00152828218683    6.99228596611638
C         2.44990292487739   -0.66322163265262    6.64363114901273
C         1.99969739732018   -0.29539433038177    5.38859005796565
C        -1.02329150677996   -2.71180679539237    0.64856022380520
C        -2.45560815564474   -3.06134952839551    1.07929881080833
C        -0.40072989247086   -3.86207535025538   -0.15925910332364
H         3.63176682691459   -2.25887988376171    3.02707070660410
H         4.50624181203727   -2.62471765540454    0.52824786139213
H         2.80598592462319   -1.19053969174513   -4.26631868887890
H         0.66221418737461    0.10440946063785   -5.19906659293835
H         5.32132998713027   -0.71090936639476   -1.16092453766131
H         7.31343198876132   -1.74178969545836   -2.18535072211012
H         7.07029216284591   -3.71998272789009   -3.64007245283352
H         4.82972775189480   -4.66216015920802   -4.06512709149737
H         2.84125663344141   -3.62849871913319   -3.03846447794661
H         1.40443670151811   -3.36175394560017    4.10775125127177
H         2.20064415736880   -4.01681715548311    6.34668282269801
H         2.87325643125464   -2.28773563229344    7.97330410304447
H         2.74453899664637    0.09679069464083    7.35267687489577
H         1.94545306809552    0.74728530056158    5.11162147210530
H        -0.41531459593978   -2.55563410415744    1.55817887388989
H        -3.07100970165933   -3.23504636942287    0.20002114931698
H        -2.45677781860171   -3.95061248018769    1.70423585742174
H        -2.87648996494423   -2.22922549121134    1.63970352200762
H         0.60785816849512   -3.58783938461782   -0.46138780040758
H        -0.36283980823666   -4.76749038253512    0.44080064933986
H        -0.99492898853429   -4.04320908740218   -1.05156617260856
O         1.06105206285779    1.57389242854477    0.14166210158542
N        -1.62721964362051    1.00421243246588   -0.71332583581824
N        -0.66786743879549    0.27958747226603    1.91626957244964
C        -1.14120352743802    0.87305539370319   -3.11957181937107
C        -0.06561340825798   -0.17058803402261    3.05020321762336
C         1.02351990829307    2.71177018381261   -0.64831055566069
C        -1.91346319255039    1.24539404821701   -2.01940166809300
C        -2.64650106617152    1.51588842165869    0.02754407711207
C        -1.82523889650067    0.89423585101687    2.28411403526284
C        -1.62400792111731    1.26390621724563   -4.46325714484582
C        -0.88423568559908    0.15258779864390    4.18166561395772
C         2.45572465167285    3.06133606460005   -1.07926868043953
C         0.40076982738926    3.86207945482766    0.15934654479607
H         0.41548027912680    2.55541806984640   -1.55786869531952
C        -3.16414216081559    1.95129432443955   -2.11240034649830
C        -3.61135336731147    2.12752513350358   -0.84817388526147
C        -2.75625288754123    1.48144700187666    1.41904709737862
C        -1.97261982253386    0.81050995634083    3.70769852734311
C        -1.70311016835911    2.60640914211301   -4.82056179697206
C        -1.99970518419905    0.29538202956602   -5.38862145288911
H        -0.66221309165328   -0.10438832118751    5.19903531521085
H         3.07116745910989    3.23512749618263   -0.20004473092274
H         2.45671955452059    3.95057475396861   -1.70424614131455
H         2.87658608000479    2.22919539933527   -1.63966590030555
H        -0.60781141538376    3.58780320357524    0.46146971187479
H         0.36280861685275    4.76744062962517   -0.44080553141573
H         0.99495188762273    4.04332792192772    1.05164521384688
H        -3.63183363809354    2.25894288720646   -3.02712649285198
H        -4.50631472699994    2.62479771631538   -0.52828111224808
C        -3.95167392640824    2.10311060382492    2.03111012820665
H        -2.80596818018543    1.19056193469393    4.26626708977704
C        -2.14774639568848    2.97163235214724   -6.07833030427770
H        -1.40445440361760    3.36173542213631   -4.10776265743696
C        -2.44991556174618    0.66321294168036   -6.64365502338419
H        -1.94547083541687   -0.74729708788674   -5.11164748335742
C        -5.21927897609799    1.58037278316101    1.79402070438890
C        -3.82320718744568    3.21595773197666    2.85652016671514
C        -2.52383839454669    2.00152128452584   -6.99230058536959
H        -2.20066996368496    4.01680896090351   -6.34668739774743
H        -2.74456063226611   -0.09679855366167   -7.35269648371794
C        -6.33452763677859    2.15871518893303    2.37248188835314
H        -5.32134873781657    0.71091795255095    1.16092584111219
C        -4.94066608685339    3.79573408413887    3.42944235346883
H        -2.84125274743995    3.62849544414357    3.03845579298068
H        -2.87328464804774    2.28773075155023   -7.97331292150627
C        -6.19858437408574    3.26822208574287    3.19018058840164
H        -7.31344283624684    1.74180839740037    2.18535164383887
H        -4.82971864594481    4.66217008561878    4.06512320805514
H        -7.07028976725435    3.72000090881216    3.64007432633548

