93
CSD_code = WACWIG | q = 0 | S = 0 | Stoichiometry = C48H38N4O2Os | MND = 6
Os        0.00013156311570    0.00021278618943    0.00023843841199
N        -0.58195251826327   -1.80434542333933    0.76699640169087
N        -1.62095465705646    0.87965005121577    0.86856552243021
C        -1.69846764392693   -2.05021729299883    1.50627691683693
C        -1.78590796958090   -3.45518313396695    1.77938910611674
C        -0.70472366206083   -4.03969784874594    1.20463270216607
C         0.04954371097581   -2.99539190572678    0.57539373994325
C         1.22478424371457   -3.19834993630593   -0.15226717790950
C        -1.94076792112005    2.19997982553716    0.81100046663813
C        -3.16321576081103    2.42815382370402    1.53348106653070
C        -3.56037139801704    1.23084742867572    2.02312240361802
C        -2.59176519538042    0.25869155213079    1.59204575127757
C        -2.64695958922745   -1.10126682219588    1.90367599783101
C         1.73930735197016   -4.58395957465592   -0.24081163435822
C         2.20784733852779   -5.23887423563406    0.89346134591617
C         2.68737028882430   -6.53337580631593    0.80633636751629
C         2.69837058849998   -7.19131632468855   -0.41227001346697
C         2.23000757471753   -6.54742509066188   -1.54540525940300
C         1.75578919878738   -5.25079849754142   -1.46188455778414
C        -3.79757844328299   -1.57936402283798    2.70152805500597
C        -5.08917062876081   -1.50615438611207    2.18853791233516
C        -6.16447858891880   -1.95956020977172    2.93080695445299
C        -5.96457186706055   -2.48620996767779    4.19605291941893
C        -4.68268832949370   -2.56000616300200    4.71496813618368
C        -3.60490391319618   -2.11269103586497    3.97225911927628
O         1.08056651522287    0.31178723625723    1.54747288994716
C         1.02712053747346    1.40896671737375    2.38439155986939
C         2.09892375822709    1.31280889697384    3.47302158316453
H        -2.57810210896970   -3.93057269577424    2.32447514712972
H        -0.44758893996194   -5.08088587830247    1.19298273581427
H        -3.64819977080343    3.37866452230058    1.64019102484599
H        -4.42292958533661    1.01733546800796    2.62392968389752
H         2.20183805506652   -4.72082319151525    1.84125584786597
H         3.05382222519827   -7.03119239211448    1.69232442900027
H         3.07066936577802   -8.20291977324506   -0.47887096472006
H         2.23410874819830   -7.05747709752436   -2.49776153951751
H         1.38573493652712   -4.74742536779404   -2.34360394358422
H        -5.24128622659659   -1.10079618810032    1.19876741918973
H        -7.16225853265681   -1.90219633359088    2.52054099311972
H        -6.80512003014442   -2.83823958285292    4.77572610848244
H        -4.52208698998686   -2.96802968450621    5.70235678177558
H        -2.60460069584610   -2.16453324635067    4.37719276060534
H         0.03040952569643    1.47976945919904    2.85742441416329
H         1.17620077700116    2.33953176868770    1.80535597128358
H         1.94769672835163    0.41013851119854    4.05926932309211
H         3.08312473020284    1.26509098358429    3.01431985668128
H         2.05027433383419    2.17886577530943    4.12796381587679
N         0.58186638989356    1.80462332568342   -0.76726490546103
N         1.62076726042404   -0.87939574892836   -0.86840956779816
O        -1.08000979214983   -0.31291230879581   -1.54693229053186
C         1.94064534886820   -2.19974857524141   -0.81088024281929
C        -1.22471803803799    3.19848405241094    0.15237294079945
C         1.69841909829870    2.05045715517058   -1.50657310817337
C        -0.04955604065137    2.99568709389647   -0.57546792972487
C         2.59149779541711   -0.25854266333459   -1.59205726216363
C        -1.02682447263577   -1.40988167687764   -2.38425630118398
C         3.16309824609081   -2.42797919817648   -1.53335863324017
C        -1.73914647623968    4.58411416705789    0.24109341764137
C         1.78590342794722    3.45539993259658   -1.77959280514670
C         2.64681676637000    1.10134980057666   -1.90386696179054
C         0.70476738216933    4.03992674482634   -1.20470040957476
C         3.56016273071716   -1.23070030875832   -2.02309772071032
C        -2.09872914210065   -1.31301137668803   -3.47290572338871
H        -0.03022788710378   -1.48021629702053   -2.85754019387295
H        -1.17615050570741   -2.34077097853845   -1.80573906600023
H         3.64814347011631   -3.37847955519202   -1.64002385984054
C        -2.20770284593717    5.23916011784917   -0.89308830593463
C        -1.75551495206656    5.25078755474385    1.46224983131813
H         2.57813015757665    3.93077265980687   -2.32465343160681
C         3.79738306699904    1.57931849340479   -2.70186895404277
H         0.44771516812040    5.08111317516409   -1.19290733264688
H         4.42269505218931   -1.01722925361060   -2.62394473897365
H        -1.94736499366506   -0.41017360422441   -4.05888831839197
H        -3.08294037718558   -1.26540085491950   -3.01422757761530
H        -2.05049742733447   -2.17890953614878   -4.12814212710050
C        -2.68713561454017    6.53367972713457   -0.80578720889143
H        -2.20175724177843    4.72121151388051   -1.84093788624881
C        -2.22965610215627    6.54742769611798    1.54594198165845
H        -1.38546698734311    4.74726839665679    2.34388897790825
C         5.08903412969043    1.50615860510325   -2.18902535082400
C         3.60455679681945    2.11256154724103   -3.97261161588292
C        -2.69803254011155    7.19147143427230    0.41289936740016
H        -3.05358365080080    7.03161739474874   -1.69170617646281
H        -2.23369811512178    7.05735330223240    2.49836400147613
C         6.16424632671844    1.95955001412153   -2.93144115078405
H         5.24127283029067    1.10088051976908   -1.19924177324935
C         4.68224208634662    2.55987311015279   -4.71546241240611
H         2.60420085743293    2.16441517375429   -4.37740409674486
H        -3.07026706811529    8.20308937570270    0.47963514218658
C         5.96418369351990    2.48613665740763   -4.19668798333272
H         7.16207533756354    1.90223170092527   -2.52129166029787
H         4.52151123953088    2.96786672353394   -5.70283828398127
H         6.80465448222549    2.83814907388290   -4.77647887220710

