101
CSD_code = WACWUS | q = 0 | S = 0 | Stoichiometry = C56H38N4O2Os | MND = 6
Os        0.00002378456290   -0.00001511908786    0.00001793060992
O         0.87752981299456    0.67172631852036   -1.57768395575892
N         1.57255588787914    0.61686345290935    1.14868596700758
N         0.91674096756586   -1.80820311765969   -0.24399205104099
C         1.66580276379259    1.81750010673291    1.78318050748151
C         2.87368108203294    1.85623547932259    2.55374702906523
C         3.49648404377097    0.66525778185216    2.37244703283835
C         2.67517119164252   -0.10746411462591    1.48373898351042
C         2.95460374616617   -1.41551290447952    1.07322292376065
C         2.12165261001289   -2.18917939452901    0.25944480462684
C         2.44017896568015   -3.50694889708307   -0.21868119975344
C         1.40852237965840   -3.90405158306530   -1.00159127903444
C         0.45558799842670   -2.83111508306277   -1.01257203050733
C         0.73824094388707    2.85532225286652    1.72827345634027
C         4.22326111132372   -2.02177471803441    1.53174622861637
C         5.44474542111570   -1.47560577223460    1.14907471940073
C         6.63057585467523   -2.04452050247343    1.57670378239803
C         6.61140060706131   -3.16114752178967    2.39579149255289
C         5.39988697047981   -3.70878574718662    2.78354491632288
C         4.21253701713559   -3.14577843723778    2.35225239606450
C         1.03924028805557    4.08045586221955    2.51148303886576
C         0.61619254238842    4.18535081154349    3.83114031691625
C         0.89628735088556    5.32637156380947    4.56190274644890
C         1.59902910210713    6.36988484140995    3.98276034847401
C         2.02175076665085    6.26947872650933    2.66802430492654
C         1.74372411610691    5.12974430583382    1.93408416506486
C         1.04014130828796   -0.00128005962967   -2.70747353738669
C         0.10098129098881    0.10460360620632   -3.74316769710316
C         0.28679902124944   -0.57760333093112   -4.92802556779870
C         1.40615379859416   -1.37220376342054   -5.11724359548195
C         2.35079189706319   -1.46784717314558   -4.10817916707448
C         2.17921053620846   -0.79102472465717   -2.91818507950723
H         3.18986894022733    2.68579667293601    3.15565724882892
H         4.41794246983194    0.33021899187110    2.80760364331763
H         3.34151978628621   -4.04270496066960    0.00746844855029
H         1.29478752609426   -4.82887916675639   -1.53275812235416
H         5.45772092152749   -0.60808489406626    0.50511946318292
H         7.57321837358228   -1.61623709202149    1.26856522678522
H         7.53792203699606   -3.60283292508946    2.73146511565652
H         5.38003596008009   -4.57772459672269    3.42504264630928
H         3.26620120963099   -3.56787127173707    2.65815750175981
H         0.06758811203825    3.36729187935163    4.27447730871727
H         0.56471769338808    5.40151935346131    5.58723856696126
H         1.81663978693165    7.25979163257815    4.55479681113613
H         2.56966808602681    7.08148442855465    2.21261683787725
H         2.07109651533049    5.04620380621564    0.90808054663993
H        -0.76789426980763    0.72836052618864   -3.59031041732021
H        -0.45262833225152   -0.48951131904032   -5.71112170766190
H         1.54538281437863   -1.90538120347611   -6.04596690816248
H         3.23142268977553   -2.07807050008956   -4.24832550011071
H         2.91511591010189   -0.85636762837607   -2.12968346060896
O        -0.87760251198040   -0.67167398244070    1.57768485452519
N        -1.57253410879862   -0.61689217021419   -1.14864896677321
N        -0.91670786662181    1.80818157238424    0.24403928067577
C        -0.73825298755897   -2.85537806114757   -1.72815923317580
C        -0.45558440105346    2.83107616826796    1.01265406256555
C        -1.04026282375432    0.00131808763701    2.70747584032030
C        -1.66579802510427   -1.81753909029766   -1.78310908388707
C        -2.67510799312794    0.10746798833455   -1.48376535333617
C        -2.12158197964660    2.18918231490588   -0.25946666138650
C        -1.03929558218929   -4.08054724107845   -2.51129540585281
C        -1.40850423731470    3.90402466268763    1.00163958965281
C        -0.10111557307689   -0.10453723171672    3.74318483616878
C        -2.17937994215196    0.79099354978226    2.91818290022422
C        -2.87365535554685   -1.85626261329531   -2.55370978636808
C        -3.49641623954596   -0.66525218048209   -2.37248013592792
C        -2.95450772420617    1.41553702947601   -1.07329248099443
C        -2.44011511829144    3.50695236636103    0.21865287927155
C        -0.61633336110669   -4.18551741757655   -3.83097358773498
C        -1.74374746444481   -5.12979933833736   -1.93379231997210
H        -1.29478727428374    4.82884252104067    1.53282689540302
C        -0.28700320149221    0.57761648934936    4.92806216527554
H         0.76779255004825   -0.72825023781990    3.59033089233044
C        -2.35102204846274    1.46777860826389    4.10819006612150
H        -2.91526476550768    0.85632524966847    2.12966109603002
H        -3.18985410440946   -2.68583409691882   -3.15560000618721
H        -4.41784272326066   -0.33019222401156   -2.80768772179835
C        -4.22309568800837    2.02186054150297   -1.53192589778701
H        -3.34143004143184    4.04272909448292   -0.00755233321798
C        -0.89647985103174   -5.32657916077510   -4.56165220785282
H        -0.06775477516852   -3.36748504639559   -4.27439206619555
C        -2.02182780952461   -6.26957330069166   -2.66764916064082
H        -2.07105327009437   -5.04619753713707   -0.90777286759347
C        -1.40640627450014    1.37215068608151    5.11727682367494
H         0.45241099978221    0.48954316622411    5.71117320296575
H        -3.23168232337540    2.07796069046521    4.24832948765075
C        -5.44465037452990    1.47578326916118   -1.14935090366365
C        -4.21222231865207    3.14584462564703   -2.35245788789902
C        -1.59918993329463   -6.37005575743347   -3.98240583658477
H        -0.56497649260865   -5.40178872673957   -5.58700461177016
H        -2.56972126456206   -7.08154926981412   -2.21216088522281
H        -1.54568491127100    1.90529473807744    6.04601187549141
C        -6.63040351319345    2.04476568794191   -1.57710506259130
H        -5.45774404916139    0.60828165444156   -0.50537212457151
C        -5.39949418332945    3.70891861885625   -2.78387598922402
H        -3.26583012841880    3.56786982617088   -2.65828082384770
H        -1.81684165319945   -7.25999362572232   -4.55437769220327
C        -6.61107945432103    3.16136813874966   -2.39622262812351
H        -7.57310277352629    1.61655218508652   -1.26904337564893
H        -5.37952569891853    4.57784017364373   -3.42539323274731
H        -7.53754076339556    3.60310372683062   -2.73199559791344

