69
CSD_code = WACXEE | q = 0 | S = 0 | Stoichiometry = C32H32Cl2NPRu | MND = 9
Ru       -1.21250036604046    4.95548836576015    4.41798074777834
Cl       -2.65385083229327    3.84983904496663    2.91433264006716
Cl        0.31733712646099    3.23944127281505    3.89398162629777
P        -2.21843887591051    3.54896963584514    5.91499136480953
C        -3.90068255972747    4.16283337911366    6.17607298309991
C        -3.93023932981651    4.79441405629874    7.38152646035840
H        -4.79305160839749    5.33375570508965    7.74332385165759
C        -2.77325369498142    4.62214096673644    8.19475378798569
H        -2.72306835954452    5.04426507511282    9.18709679926740
C        -1.77773773886330    3.87853287448778    7.63866967522927
C        -2.05803630400626    1.76256322429006    5.51509357985137
H        -2.29981122108951    1.62841608143726    4.45433649355680
H        -0.99978823657004    1.50443365314749    5.63849538489725
C        -2.94127578834088    1.00652709295492    6.44127132136999
C        -3.18095188745942   -0.36068617052439    6.36548512347486
H        -2.71214265416761   -0.95486608940497    5.59695657027288
C        -4.03473874017292   -0.92743406106783    7.29642503363128
H        -4.24939228175206   -1.98555959583771    7.26776543681014
C        -4.61294936429932   -0.11889758497287    8.26510114658377
H        -5.28342734315999   -0.52867619662580    9.00407291401342
C        -4.31019748610129    1.23229468697766    8.25708288605863
H        -4.73045552098132    1.91410492196277    8.98418965335980
N        -3.49872503575344    1.77256960162862    7.36653310341563
C        -4.96097268945257    4.18367706752020    5.18244857620189
C        -5.74497562703141    5.32319469753792    4.99698168524318
H        -5.55442620483042    6.20431953309279    5.59368969821577
C        -6.74137399595584    5.34351006380661    4.04051668267859
H        -7.33055003752648    6.23826508567656    3.89639311674869
C        -6.98033920361335    4.22381508537169    3.26108533483782
H        -7.75500032803952    4.24386048068449    2.50871906147064
C        -6.22077252822393    3.08100495506806    3.44892722675275
H        -6.40436960916239    2.20533224339590    2.84447790186354
C        -5.21802215835036    3.06102793789467    4.39796824950979
H        -4.63214117032690    2.16826653025324    4.55230323494386
C        -0.51177859172967    3.52203329144935    8.24109182782401
C         0.57441313180340    3.19465321161632    7.42761165283049
H         0.45527477716196    3.22840684524297    6.35107515248012
C         1.79452232939944    2.86045065493463    7.98127627149510
H         2.62316611399330    2.61523666808590    7.33417940840800
C         1.95264317501706    2.83951459483415    9.35804134542159
H         2.90571190953683    2.57678325711854    9.79307395030856
C         0.87875798198534    3.15250950919136   10.17691640473847
H         0.99568271548134    3.12992412189619   11.25109432815313
C        -0.34300025801088    3.48985714192639    9.62823234114640
H        -1.17829485414008    3.71395238958343   10.27472192879467
C        -2.08381237392283    6.95377840368833    3.69330399214187
C        -2.12488266843059    6.92837667501180    5.09458921060496
H        -3.04967877953630    7.15524772421205    5.61296785482706
C        -0.95150799892504    6.65616217531860    5.84526058266896
H        -0.99833417644122    6.68972151460029    6.92993010723267
C         0.29692963228110    6.46397757321079    5.21647444914393
C         0.33065259549903    6.51649829004138    3.79612297032287
H         1.27869052628665    6.41257333354217    3.28078003843490
C        -0.83037029288376    6.74364962484730    3.04931440870781
H        -0.77367791259931    6.81570282523157    1.96829711709140
C        -3.31287056159634    7.21442706688723    2.88052763165399
H        -4.11165868626970    7.62207099676550    3.49592824530921
H        -3.66538093125176    6.27413971081646    2.44798380630388
H        -3.09726338002057    7.90097250156526    2.06314764520117
C         1.54720940412911    6.35498490286643    6.05798930037549
H         1.27051520718937    5.86926507711886    7.00200580567116
C         2.04876424780783    7.77103846153735    6.36961169961159
H         2.30694021632320    8.29359969263264    5.45007062030079
H         2.93466914522730    7.72018565028455    6.99759356305186
H         1.28713115029135    8.34773408708706    6.89125921419577
C         2.64899235160732    5.52490387047234    5.40139772468450
H         2.24325671984835    4.59403407678583    5.01033098175461
H         3.41357338827317    5.28849143399175    6.13704967146460
H         3.12263640208168    6.07219902515072    4.58899939537523

