44
CSD_code = WADBUZ | q = 0 | S = 0 | Stoichiometry = C15H24ClNRuS2 | MND = 9
Ru        5.14464232865227    0.41157585276767    4.55013153720659
S         6.33190328812186    1.74147476330980    2.89678777087672
S         3.67392252073920    0.75976213549806    2.64586524539344
Cl        5.94433213474115   -1.43044327286851    3.34576242460998
N         5.06576141895457    1.65261340353040    0.53735882961430
C         5.58631634369074   -0.75506007660702    6.50903293660189
C         6.33926005233980    0.43546693502624    6.48902581135041
H         7.40637663227453    0.40108883214452    6.68075771446014
C         5.70250571208192    1.68712057255389    6.28373127594111
H         6.30351426079461    2.58944305452121    6.32675880207774
C         4.29938305315751    1.78682393917448    6.15415407450696
C         3.56049786041280    0.57908349361712    6.12303701944147
H         2.47840780856288    0.62366675533078    6.03591928340237
C         4.18541147622067   -0.67449000825139    6.29948889453875
H         3.58532646412905   -1.57661745423143    6.34407851327838
C         6.24356444305015   -2.08242991873482    6.71471818183934
H         5.60177212288996   -2.75003488783604    7.28626176884205
H         7.20034789076223   -1.97355877030541    7.22041118484974
H         6.42399344553724   -2.54046351879579    5.73832868379933
C         3.60236498505917    3.12538798003019    6.07746178679417
H         2.52396157262488    2.94096432061565    6.00591955627064
C         4.03322129349086    3.89620890602938    4.82809716684248
H         3.81840653080286    3.30626683947027    3.93741153209897
H         5.09903521882962    4.11243620421368    4.84902981308592
H         3.49005027939213    4.83613624005877    4.75944089969052
C         3.86669868621800    3.93915917992190    7.34722584719464
H         3.29246516819973    4.86215679172590    7.32190942242682
H         4.92003234389917    4.19509925251096    7.43359731558003
H         3.57446236994445    3.37513621297086    8.23093929485200
C         5.02917912697279    1.41939787884204    1.84372055815925
C         3.91687718678583    1.33825714505058   -0.28592354510438
H         3.45411220843281    0.43277131387623    0.11777075111344
H         4.27038362225457    1.13237814821703   -1.29817677237492
C         2.88552285063502    2.46269098132592   -0.30134621819118
H         2.02380340211255    2.15695140447364   -0.88732631206714
H         3.30021678305349    3.36733224992669   -0.73753383103185
H         2.55792169735870    2.67632026233246    0.71226305852544
C         6.25492334342200    2.22715186610076   -0.05830912222088
H         6.27241808632197    1.95028871879169   -1.11393617994608
H         7.12496198028339    1.78696595584911    0.43833240644940
C         6.30723428025002    3.74463432960655    0.09424632258191
H         7.23621029515047    4.11966561659399   -0.32536758140770
H         6.26893091189570    4.01059055712507    1.14677359412769
H         5.47576651950695    4.21832981448703   -0.42042971611370

