57
CSD_code = WADHIT | q = 0 | S = 0 | Stoichiometry = C24H24FeN2O6 | MND = 6
Fe       -0.00114698046148    4.78100873286649   -0.01081730778634
O         1.50447806947415    5.75992933905860    0.83989386080742
O         3.07440048457224    5.46627556800560    2.39628966626320
O         1.49193063944304    3.21799145440326   -0.54900409397316
N        -0.04028488879996    3.92832823585006    1.82070271766592
C         2.01143800772525    5.19740099592049    1.86139642261006
C         1.10997740917887    4.12099853094115    2.44876261114410
C         1.47229390082567    3.48470316272063    3.64414328745190
C         0.59604851735514    2.61142631830460    4.22251719426142
C        -0.66053525504777    2.41069710040137    3.61365745402057
C        -1.63544171295446    1.56438550045636    4.17855134033759
C        -2.85265255159413    1.39883434196777    3.57845278683704
C        -3.13840417556087    2.07309061208650    2.38315964075446
C        -2.21363829086313    2.90201509482557    1.80656623384945
C        -0.94921114910896    3.09425912965517    2.39583987573634
C         1.09937623871270    2.07488116510705   -1.29940506570784
C         1.05766947602783    2.35091344396846   -2.79368064598682
H         2.43998912811263    3.71929835942674    4.05920031787712
H         0.83511997374379    2.08740531759829    5.13653949947611
H        -1.39746370761863    1.05258038516238    5.09999123799963
H        -3.59475637830531    0.74940603582063    4.01837808050216
H        -4.09941054450075    1.93359493073169    1.91160489351816
H        -2.41404049910700    3.38898775117515    0.86821335301757
H         2.30121841850445    3.57446630510425   -0.93901224567540
H         0.10425316028024    1.81880687666786   -0.93398321644589
H         1.79406084617328    1.25322758765043   -1.07752926466394
H         0.33812116719495    3.13904180171231   -3.00066352974370
H         2.03665634029057    2.65980081537091   -3.15911343951895
H         0.75357446091471    1.45530601932069   -3.32738547150304
O        -1.52346167669845    3.82426607734782   -0.86589337997320
C        -2.04557627960449    4.44095610188008   -1.84912586650954
O        -3.13339737564302    4.22466636739394   -2.35693204475597
C        -1.12502802807674    5.50443409704507   -2.42820223593896
N         0.04578221464139    5.63871979599889   -1.82134081868003
O        -1.49881301751119    6.33881716444000    0.53384009711634
C        -1.12718474213680    7.47617553513830    1.30314660639489
C        -1.13905982423940    7.19362289532413    2.79692364017773
H        -0.43333300088615    6.39922564855146    3.02660364426093
H        -2.13249226764888    6.89107175551183    3.12699329602935
H        -0.84685071979858    8.08492576609136    3.34436756277523
H        -0.11881582061891    7.72884384913896    0.97298211807844
H        -1.80948354319824    8.30258548153726    1.06149970659093
H        -2.32320711233594    5.98320814553239    0.89157713078592
C         0.97821230739501    6.44137701457385   -2.40335341602960
C         0.69141422542738    7.16128815553239   -3.60035487289624
C        -0.58687036489524    7.02783255036872   -4.18247401545363
C        -1.48574919384391    6.17851234676935   -3.60275683229183
H        -2.47049672906184    5.99196240225970   -4.00176283898223
H        -0.82425067007364    7.58144527112438   -5.07926643432592
C         1.68940799279503    7.97488876795465   -4.17259795075560
C         2.92700903570924    8.07409505785061   -3.59984312188902
C         3.21132773771553    7.36285492207735   -2.42609761412952
C         2.26441305096685    6.56340354008347   -1.84345255050717
H         2.46515227651781    6.05091019757263   -0.91908845383038
H         4.18863341649191    7.45015406176904   -1.97597511178078
H         3.68633679131151    8.69961845970963   -4.04495560448034
H         1.45276121269357    8.51557765913844   -5.07772683212133

