51
CSD_code = WADKOE | q = 0 | S = 0 | Stoichiometry = C18H25N3NiO4 | MND = 4
Ni        3.57961720384359    8.53604316249545   12.46776748147554
O         0.33241038160395    9.90032494041237   10.38964675025750
O         6.63142256877296    6.22421205831020   13.86065884883187
O         3.67454555887797    9.97417700992143   13.57777734388473
O         4.83014636569693   10.44386822786423   14.20895548718270
N         2.20275065759406    9.51589996174481   11.56062958030853
N         3.05391087151717    6.86415456615901   11.63131729789827
N         5.19374847566985    7.78998144873365   13.15025705586899
C         2.04114112122552   10.96753240376848   11.60180267163239
H         2.01484110152450   11.29050810195616   12.64608818008110
C         0.68520010525681   11.17982084326625   10.90156529170525
H        -0.09656490579431   11.50359214761093   11.59608298992126
H         0.73206394010622   11.88354839652880   10.06814270951715
C         1.24278268825743    9.01629944039041   10.84370804608432
C         1.08344069239017    7.66103371536346   10.47497666991085
H         0.23320356489767    7.41787592723593    9.86020057685201
C         1.96091506218439    6.68987454417801   10.84680863887410
C         1.80323843141459    5.25162217625481   10.41344186672114
H         1.80809894788982    5.18128637910078    9.32538027391747
H         0.85255367952622    4.85252369974660   10.76837464142326
C         3.00477021358450    4.56189778522630   11.05247006635184
H         2.71694188459546    3.77693449488143   11.75243885849368
H         3.67655020019000    4.12034273738791   10.31561200578011
C         3.69772286504621    5.68677586746486   11.78333251057058
C         4.83715594210282    5.48362659328543   12.50897492621971
H         5.25997638756148    4.49679087214169   12.59083717302528
C         5.51453525069105    6.52749476516990   13.16442365901004
C         7.10774874283721    7.42001584550798   14.46076006232487
H         8.15296638866253    7.56315736924667   14.17736057131893
H         7.04515153854997    7.31017685970442   15.54810196920645
C         6.19118306662286    8.52722672330189   13.91104615502365
H         6.73723553398681    9.18700945079850   13.22181208844150
C         5.52278420200147    9.46160983631576   14.95747228266874
C         4.59263735916952    8.69853941533820   15.90184040817459
H         4.12479044966793    9.40178909988117   16.58579829028099
H         5.13969876136079    7.95398047585384   16.47272763440018
H         3.80726566088397    8.20700320328431   15.32459121275297
C         6.58641336327010   10.24413591923283   15.72602666719810
H         7.19956003078026   10.81242936092401   15.03190160463445
H         7.21898346003909    9.57323428652541   16.29944827122256
H         6.09860199651223   10.94145438188727   16.40101641251524
C         3.24544518686263   11.65649445295906   10.92764846344526
H         4.12288698360121   11.31283779188038   11.48688295037350
C         3.41548898022192   11.23534760968307    9.47016141286666
H         3.51094846573913   10.15304539056699    9.40055764203275
H         4.31700171861937   11.68341548546024    9.05868312441092
H         2.57304092624056   11.55190861524591    8.85797902115410
C         3.14290831228147   13.17182478991914   11.06526967907340
H         2.27095460816088   13.55848319120795   10.54104649307788
H         4.02796827613776   13.64467245872150   10.64660212492861
H         3.06851673156315   13.45096571995442   12.11299385667566

