50
CSD_code = WADKIY | q = 0 | S = 0 | Stoichiometry = C18H25N3NiO3 | MND = 4
Ni        1.39622251754257   -0.04427872149810    3.25093490585553
O         3.60061366545441    2.91376261181881    1.60204857907229
O        -1.50375539018848   -2.31929343198426    4.73932035230834
O         2.61046273690802   -0.87557042775611    4.39026771617079
N         2.70363559902988    1.12649066286136    2.61254404232875
N        -0.05457388549337    0.87620768805570    2.37028701863396
N         0.26640225393702   -1.31675697722332    3.83276697308114
C         4.14144281394516    0.98381397297093    2.82914105519537
H         4.33033908514215    0.87247854049372    3.90048364650145
C         4.69853468336219    2.30848323103009    2.27423395654702
H         5.51094090737516    2.17415928122200    1.55816173025957
H         5.03363011082102    2.98376613112783    3.06888371789891
C         2.49953994042613    2.18734100179673    1.88740236592899
C         1.26298630504566    2.63270893675859    1.36850826875951
H         1.27926549107739    3.52418759111869    0.76442781374763
C         0.08755531715441    1.98423870273589    1.60548895357139
C        -1.23672774949332    2.45516462419556    1.05384365466971
H        -1.23357510781669    2.38657586954999   -0.03500058645817
H        -1.41623311980734    3.49642743700090    1.32097730971045
C        -2.24087892485658    1.49778760058770    1.69309037415501
H        -2.83127268148117    0.95191884666921    0.95666806483372
H        -2.93451595733184    2.00934196589350    2.36157602414987
C        -1.36717435048760    0.54700008251374    2.47634159688755
C        -1.88079710281461   -0.47622910667682    3.22395758760479
H        -2.94420296119219   -0.62365801043003    3.29782881331800
C        -1.02582028154926   -1.35299930724197    3.92521789377247
C        -0.38318444001578   -2.94479676053045    5.37208201522502
H        -0.49007512909292   -4.02613773044899    5.26985870696742
H        -0.39712006530642   -2.67963019016502    6.43378243704993
C         0.84658205859912   -2.39191854312327    4.62876899112965
H         1.25739793988091   -3.14501108498230    3.94097720424047
C         2.05022957765198   -1.72191775408199    5.34637189555845
C         3.09040728891769   -2.77346058799306    5.75893282380633
H         3.46894489480848   -3.28078284031955    4.87546875864455
H         2.64883290526965   -3.50242148298927    6.43408212784076
H         3.92246491246756   -2.28095736654805    6.25359561327801
C         1.59733784016800   -0.91866058505711    6.57811522818240
H         2.43531025562468   -0.31775479634776    6.92141274371068
H         1.27590241050035   -1.56817494247016    7.38914812761652
H         0.78820231141480   -0.24309838223126    6.29934826402338
C         4.66337986617915   -0.28921242164809    2.13065618260252
H         4.07419680023069   -1.10594693359648    2.56165121961795
C         6.13498397823852   -0.51754418632296    2.45976148318808
H         6.47354303286935   -1.45375035393927    2.02252138892219
H         6.27818099667924   -0.57048464341010    3.53595615081372
H         6.75779502121180    0.28432236688778    2.06750088567077
C         4.42400419231651   -0.26669469276602    0.62324023002044
H         3.36433948750305   -0.13208483554051    0.41302516176048
H         4.73971927396080   -1.21059253126556    0.18489805732594
H         4.98078067521502    0.53254248330024    0.13744247430079

