103
CSD_code = WADNIZ | q = 1 | S = 0 | Stoichiometry = C54H45CuP3(1+) | MND = 3
Cu       -0.09014937631879    8.37397190363180    4.60854586827883
P        -1.67557794365817    9.13464697347095    3.20884225444416
P        -0.43193599276658    8.11703401358236    6.81314480318620
P         1.72420227299855    7.40003267955151    3.70361158607618
C        -2.62804414094472   10.55297077617332    3.82609253240902
C        -1.90196664760126   11.58388826383212    4.41963145400951
C        -2.55608699176108   12.68931253264430    4.92917697967856
C        -3.93908709999475   12.76152221208147    4.86237123090134
C        -4.66365170430808   11.73264349671159    4.28259730859691
C        -4.01423514276219   10.62707073489029    3.76237170384374
C        -1.19054863229814    9.61639766670752    1.52401749992731
C        -0.52153227771814    8.66243161441955    0.75758075068964
C        -0.07147070640063    8.97990784016267   -0.50827620424105
C        -0.26589322953733   10.25741694962129   -1.01019468697402
C        -0.91606844915894   11.21157492909644   -0.24589510072604
C        -1.37888043645104   10.89787369985234    1.02032088419183
C        -2.93630024865010    7.84565813052498    2.97953960190512
C        -3.37726774218230    7.22379483258240    4.14725044320957
C        -4.30344027167658    6.20163173599564    4.08480594545159
C        -4.78720831059138    5.78648734160168    2.85307857990767
C        -4.34927110082649    6.40064994255190    1.69102931157182
C        -3.42430302249612    7.42959237918401    1.74677479150728
C        -2.10539221044613    8.41660296980434    7.45721141127429
C        -2.59449426709402    9.71525876139469    7.32149409866983
C        -3.88813522471717   10.01121268388702    7.70297640946524
C        -4.70217179317505    9.01143086047331    8.21391533363177
C        -4.21905185556762    7.72005266158296    8.34651818376274
C        -2.92384646861345    7.41459150515964    7.96564075834188
C         0.65074122196679    9.00835062207821    7.96570135791074
C         1.93765317380409    9.29360001271745    7.51694006807013
C         2.83902037894864    9.92442981461612    8.35300778803223
C         2.45273751759039   10.28591711623807    9.63416442093196
C         1.16660719559695   10.01839553779443   10.07699639062766
C         0.26147795699044    9.37904822429585    9.24877269593568
C        -0.10501945582914    6.36955063712320    7.19436433397711
C        -0.54445818860139    5.43510936501010    6.25764475838130
C        -0.27457521158655    4.09180862589735    6.43501474076308
C         0.44205097051288    3.67502972954563    7.54664557499845
C         0.87966750786529    4.60138333049797    8.47976597107804
C         0.61280334303962    5.94867079183957    8.30773012077168
C         2.35201798107019    8.31026137586523    2.25769331104086
C         2.14668537191966    9.68799978501536    2.25561492364072
C         2.57682907458425   10.45421475835650    1.18983438469535
C         3.20405887800513    9.84410455647405    0.11549158412339
C         3.40379498982204    8.47281932384604    0.11146563918544
C         2.98013531252583    7.70069462684032    1.17848560698010
C         1.38092709255255    5.72743337263427    3.08329379077946
C         0.05855365074658    5.42293698865770    2.77312213766756
C        -0.27643004177455    4.17260347441208    2.28905255706390
C         0.71041956653306    3.21481197948220    2.11956795425783
C         2.02747403381834    3.50916059515131    2.43650700665332
C         2.36786158800686    4.76012257016906    2.91840964653340
C         3.19434550265006    7.17229765174286    4.74670222734479
C         3.13406674945655    6.20306090139248    5.74737630752266
C         4.17006098055268    6.08060939729042    6.65222787160305
C         5.26435954354511    6.92853987755086    6.57277492464717
C         5.32243548799503    7.89747931268810    5.58454115398051
C         4.28795848577559    8.02898209387477    4.67457973703867
H        -0.82183696690055   11.50667694357101    4.47496075404309
H        -1.99236334000689   13.49081209953146    5.38306139192747
H        -4.45225410368313   13.62191195775690    5.26424153997624
H        -5.74041390055794   11.79216710607306    4.23273036420719
H        -4.57977786718215    9.82565680610393    3.30877057095449
H        -0.35908584891204    7.66957581667698    1.15810011582982
H         0.43628198231912    8.23406514008004   -1.10095982133686
H         0.09050934863649   10.50819865346620   -1.99738020398843
H        -1.06661639090424   12.20624403222933   -0.63767385181163
H        -1.88883034879355   11.64441587897279    1.61253699649119
H        -2.99085625239587    7.55965452460826    5.10357422235779
H        -4.64399006793379    5.72736575137228    4.99306164051512
H        -5.50689740690791    4.98401753455562    2.79995557235744
H        -4.73023617982978    6.07821537267422    0.73374207259356
H        -3.08556214867079    7.90694451501761    0.83837841146260
H        -1.94860724508763   10.48477826463301    6.91777605932963
H        -4.26270483673544   11.01824013495555    7.59809180742971
H        -5.71442842760505    9.24039525804374    8.50967409092261
H        -4.85400308777180    6.94519340524178    8.74904530635699
H        -2.54863074247113    6.40521991210705    8.06345194622250
H         2.22372181172855    9.01174408603221    6.51005530072866
H         3.83912938325159   10.13601442493839    8.00550745350919
H         3.15416232808499   10.78086153907727   10.28833845908357
H         0.86849335320858   10.30577514011723   11.07405607007889
H        -0.74086227746348    9.16613374765076    9.59359714205538
H        -1.09849166785092    5.77106071133396    5.38898785727923
H        -0.61317637986866    3.37323382020378    5.70339776369771
H         0.66165077901706    2.62722925177812    7.68336621427509
H         1.43548382695289    4.27331379061320    9.34521604503715
H         0.96515719558950    6.67082898478480    9.03008215864463
H         1.64196409712693   10.14875476110459    3.09829251037618
H         2.41743565845860   11.52184685638443    1.19146376341722
H         3.53545236286366   10.43875531375966   -0.72181744621385
H         3.89209033359639    8.00185285804848   -0.72844297215561
H         3.12978381990813    6.63043572013789    1.17078086235959
H        -0.71107327353201    6.17401563565504    2.91952939074182
H        -1.30482396367925    3.94614439864779    2.04907338910950
H         0.45297483218022    2.23638287551020    1.74386817479369
H         2.79333644137994    2.75928520861868    2.30748037276014
H         3.39388001776848    4.98521887383212    3.17512072654019
H         2.27649139064119    5.54557442513331    5.80314254392608
H         4.12267748966977    5.32494512052435    7.42180717111385
H         6.07222683299319    6.83264067435399    7.28191692391812
H         6.17574451583696    8.55610039438213    5.52193591644643
H         4.32982328034070    8.78961573980255    3.90684250355795

