80
CSD_code = WADSID | q = 0 | S = 0 | Stoichiometry = C26H44BClN7Rh | MND = 6
Rh        2.58765673451736    1.89019222683768    4.84299550191877
Cl        1.61667554347937    0.53135508526718    6.41942793195484
N         1.17393530021882    3.55854663963802    5.31366902744609
N         0.64852208907715    4.19354966153931    4.25320772860214
N         1.20273944735452    1.32638210119632    3.41507466275714
N         0.67529430066658    2.30249209108194    2.64791026931204
N         3.40975156766814    3.21281693668375    3.50330830908143
N         2.57471831273384    3.91014953737533    2.71652908874853
N         4.36548307188399    2.42861060926792    7.24131566445948
C         3.74940820481803    2.30927023947341    6.26060222530169
C         3.86169466818945    0.31631191055073    4.28216738335263
C         4.14815322198298    0.20653803711567    2.78740054428351
C         4.99010502401986   -1.03898869315787    2.48838234438267
C         5.28084629429078   -1.18837249725584    0.99720746439437
C         6.11496710089388   -2.42911485949368    0.70213785949923
C         5.07792775346675    2.38912987657458    8.43759206477363
C         4.87756730371137    1.05536320728412    9.19385340017506
C         3.41483859508757    0.91498986168865    9.61153666661659
C         5.78025702777714    1.09007294006860   10.42882543568196
C         5.26615460858355   -0.11273532569085    8.28805564606760
C         0.66842951695348    4.10183640901408    6.41542833353446
C        -0.21661044627128    5.12081353406433    6.04989358677240
C        -0.20395980998273    5.14873551791364    4.66834190237507
C         1.03584083116504    3.66883042274066    7.78911567433907
C        -0.96420834293746    6.03824639228870    3.75139788267514
C         0.62035317722080    0.17680864924484    3.06695613249550
C        -0.29932602240122    0.42907518598167    2.04556484477948
C        -0.24014860846358    1.78624241956665    1.80840864810749
C         0.89069588648296   -1.16826171416531    3.64183957262558
C        -1.02014300745580    2.58136017578838    0.82397594792214
C         4.65160680954761    3.63056157502053    3.26204679326806
C         4.60839493844265    4.61751979711087    2.27444728298507
C         3.27363895679375    4.77023324096063    1.95506609643749
C         5.88265446536576    3.14627472486351    3.94374632607878
C         2.66728716951128    5.69641651687475    0.96373971541602
B         1.04563843764386    3.77709373216252    2.82941062937381
H         7.06939027883829   -2.37957159472127    1.22218261131691
H         4.46289297594445   -1.92797386471029    2.84330341061072
H         4.69330517762479    1.08330365907406    2.43278220035263
H         3.22047870788235    0.14092733109984    2.21467040308823
H         3.39125095054797   -0.61349687434239    4.61411474137200
H         4.82460337025639    0.36960677549193    4.80608498592700
H         1.76783962145171   -1.61629648896185    3.17630141446029
H        -0.35862186132504    3.10697291047571    0.13757388047200
H         0.50989101368873    4.45046830862819    2.02589123266224
H        -0.78831168075317    5.74588879478132    6.70576788858752
H         0.31037400663172    4.04954796751531    8.50365849220566
H        -0.92474734846628   -0.28927320018694    1.55537780552701
H         3.09929328864305    1.76167416828494   10.21816642314532
H         5.81104387029004   -0.30113817213703    0.64225721915310
H         2.00225388172082    6.40519148130615    1.45400256563055
H         5.44129271115151    5.14629486274231    1.85742248148798
H         6.38539668274697    3.98367567885200    4.42692481188158
H        -0.28813788163230    6.61514479462826    3.12225745225894
H         6.28653921628519   -0.00323298878073    7.92430260206638
H         6.82700728013389    1.17984880778511   10.14453129189490
H         5.93366847187994   -0.97792104845884    3.03648473298255
H         4.33666635012418   -1.24785417783421    0.45043125156418
H         5.59377263049123   -3.32546440072746    1.03157271744191
H         6.30920954186455   -2.51753587173223   -0.36453006404615
H         6.13999497285297    2.52990865117795    8.20485941519366
H         4.74459885917843    3.22406455846718    9.06346630777222
H         2.77309183211906    0.84780832141701    8.73581017653143
H         3.28053581369053    0.00784388047893   10.19469750524341
H         5.66067184451056    0.17381467956777   11.00091396179045
H         5.52410410123012    1.92900062813263   11.07277580867663
H         4.59147227710740   -0.17033025515040    7.43700845555130
H         5.19614831819761   -1.04760089576097    8.83753133120214
H         1.06309741480173    2.58286032749337    7.84457211009394
H         2.02240338251303    4.05020187428080    8.05394427768358
H        -1.61585359892947    5.45625195331001    3.10171620595907
H        -1.57273277397884    6.72403630928346    4.33494600310335
H         0.03598699876185   -1.81329777625969    3.44973238188143
H         1.05563193016067   -1.10790247225930    4.71372041469709
H        -1.66232897620921    1.91527281190971    0.25364177570539
H        -1.64104104794169    3.31962877519106    1.32862270959998
H         5.64291322172120    2.39806029814407    4.69083342410320
H         6.57101110076982    2.71700554585125    3.21664363619543
H         3.45514055865591    6.24738020246987    0.45689184012194
H         2.08896239286967    5.14595955864279    0.22426111897993

