97
CSD_code = WADTIF | q = 0 | S = 0 | Stoichiometry = C48H43IN2O2Ru | MND = 5
Ru        2.64321387995269    6.31456577245622   13.28858090562423
I         4.79519118282790    4.84056533405599   13.62392094356493
O         4.07695302079129    8.04269314702980   13.70119940108207
C        -0.83470014412222    7.88276372386418   11.93679378356222
C         2.23863578643599    4.81099326013836   10.69916786858956
C         2.46756336361612    6.45150072099114    8.93738916063323
C         0.42314862742757    6.47323537641319   10.41891697614045
C         2.13184817202645    6.78040390674310   15.04941463292756
C        -0.75468547699892    6.20837566190597    9.68901093164649
C         1.72195799405835    5.89101919101380   10.00941012408406
C        -0.76200788234721    5.35875847678650    8.55975318580938
C         4.16793063031378    4.72653504264332    9.26941144904268
C         6.05500084768948    9.83358381123488   15.12620380168758
C         3.93996205867738    8.43904614723260   15.00607830727372
C        -3.12946009099402    5.68787018574512    8.29507669048246
C        -1.07740235149505    4.93968695009917   15.34494557799787
C         3.98148125199593    7.54007711155858    6.85511962175016
C         2.01398249022496    7.58772075219219    8.23568271514593
C         4.44629512044068    6.43823241174599    7.51693296379819
C         2.61367591228536    8.17569958437360   17.02743717826884
C         3.44918348445077    4.20435719541073   10.30502212391058
C         2.87504629826692    7.80064488093258   15.69928273518467
C        -1.97888958157837    6.79559829355625   10.10678640634045
C        -1.97655739021874    7.64458024329381   11.23549018192871
C         3.70784170822348    5.86493451235599    8.57249848100238
N         0.47505094256820    4.11703647616803   13.66956358847125
C        -0.69043622582428    4.49145347866342   17.69183119437030
C         0.10365077629095    4.26249292630019   15.03234757684958
C         0.40043098655599    7.28779830470117   11.55377603789689
C         4.78081467691143    9.32763289178913   15.67621741870300
C         2.75604061194971    8.11903262582516    7.21827366766809
C         7.03564399133474    8.92715349450541   14.72417801997041
C        -1.92137314246104    5.10672960200512    7.88155952728065
C         4.48256508979567    8.97075417303176   12.69068527571923
C        -3.15401146439401    6.51469169622101    9.38428837466486
C         0.88611959969252    3.68716485761502   16.03519701976515
C         3.43825258944649   10.07373542172872   12.54813293385504
C         6.32907148503352   11.19634079024251   15.08119596031589
C         7.55378039141544   11.64678630404778   14.62151920197801
C         8.25996174020195    9.38203033100836   14.27146563134025
C         0.47331232606567    3.81765488834712   17.35430957094157
C         3.38052304418956    9.13482328797409   17.64947848182201
C         4.46359383835592    9.68742825228130   16.98662655781898
C         8.52055894825786   10.74188814799931   14.21647907749523
C        -1.45454537668934    5.04583119371942   16.67490646891012
O         1.49603624112561    7.58037083487016   12.20302743458725
N         1.48833596038398    4.23736024762285   11.76300989414758
C         1.39460006776668    4.78881775429614   12.98042321027427
C         4.64017841648284    8.15405640693190   11.41352677920028
C        -1.09846940838196    4.63718393765759   19.12620795579817
C         0.53706261205196    3.16095398386086   11.52945822909838
C        -0.13112355227010    3.02983218463741   12.89974421496943
C         2.16546998281991    2.97555907429812   15.73283373543991
C        -1.92112869088473    5.55331788244789   14.27037311556405
H        -0.82669066366424    8.52589182606216   12.80570883914268
H         1.32366369046226    6.34554286382893   15.64195719829342
H         0.16796688477188    4.91024713503193    8.23699376929970
H         5.10455838467811    4.27684005416673    8.97554299901507
H        -4.03592428076763    5.47761460274040    7.74667601690332
H         4.55480700422607    7.97393990781540    6.04894206513418
H         1.07246163665004    8.03356628483667    8.52173453158216
H         5.39040953704552    5.98865708085908    7.24452710649188
H         1.79987800271829    7.69270936391791   17.54884315318230
H         3.79964944203592    3.33685018847301   10.84430094233952
H        -2.90802872382128    8.10088237794869   11.54084553015282
H         2.40280608505694    8.99121582763791    6.68799146996516
H         6.83243111610274    7.86646467101550   14.77053171102211
H        -1.91335964707266    4.45547265272384    7.01932381517749
H         5.45176236661708    9.40723127303358   12.95879255269043
H        -4.08028849538346    6.96742839884880    9.70986272078804
H         2.46598347945939    9.62820656509928   12.33864577408082
H         3.70916634909647   10.74252506961975   11.73569844568872
H         3.36893571621647   10.64984677664649   13.46966580013020
H         5.57259259671255   11.90176656337574   15.39532957721384
H         7.75482517076130   12.70756040468081   14.58231443412500
H         9.01278949254442    8.67197761463846   13.96295072783741
H         1.08053657338963    3.38165021469440   18.13450728616314
H         3.16247026201492    9.43322490761894   18.66393076059643
H         5.10937337404859   10.38836687481056   17.49461955167088
H         9.47722615882398   11.09561826613112   13.86147508168352
H        -2.36379068319184    5.57589054075430   16.92067597234839
H         5.43541482990983    7.41856156831248   11.52887606440820
H         4.88344308323880    8.80105178325838   10.57514295365837
H         3.70116072105559    7.64045787491453   11.18503514520160
H        -0.57089298542423    5.47694535501722   19.57950789881307
H        -0.84859235953062    3.74242219870520   19.69171833480731
H        -2.16632519053905    4.82328597460206   19.21044081529382
H         1.05981764669750    2.25064907851125   11.21945736518390
H        -0.17004550537543    3.44442749282266   10.74119470050174
H        -1.21557484578031    3.15716031503222   12.85301095096298
H         0.08280804084365    2.07064813915428   13.38297368302518
H         2.22741965913480    2.66467904451510   14.69421626742402
H         2.27909074882583    2.10317793864400   16.37242863897479
H         3.00422411327983    3.64356385431678   15.92722191665047
H        -1.30233142721863    5.91860035713410   13.45386401686362
H        -2.49714896891863    6.38467821978949   14.66861519329343
H        -2.62525375912952    4.82324935318607   13.86854591966366

