107
CSD_code = WADYOP | q = 0 | S = 0 | Stoichiometry = C54H45NO3P3Rh | MND = 4
Rh        4.41224645732681    2.79961106503370    4.03976324155091
O         4.56180991946086    1.29196054050077    2.61052631383968
O         2.56313326975887    1.18317100321541    3.34470096846128
N         3.42958577002678    0.74422164090616    2.59179260491986
O         3.23321878491087   -0.18291330752253    1.84416374260087
P         4.31821852305578    4.33868964010106    5.65095466031894
C         7.04593327018519    4.84772606147172    5.59813291670033
C         8.21871424785039    5.49097825027088    5.95249484210248
C         8.18708583140548    6.51578139652096    6.88304998242429
C         6.98059864305605    6.90205445014288    7.44629917155578
C         5.80705416291568    6.26440540424465    7.08778033971339
C         5.83405253456619    5.22011539468197    6.16758719694568
C         2.73376698974889    2.57321366500809    6.96746613182551
C         2.19197559947134    1.87829924145964    8.03111027974829
C         2.64535079689629    2.12672568468478    9.31716813652377
C         3.63971058206415    3.06529274734931    9.53006872138929
C         4.17976790207465    3.76995971547592    8.46735391968242
C         3.72350739298317    3.53226572495040    7.17922762592532
C         1.90591614916903    5.73861319281167    6.11696392873105
C         1.07701423173365    6.84205136823543    6.02576349203177
C         1.50884760949840    7.98870708656061    5.38218759989086
C         2.77250557014918    8.02491104418230    4.81626997867600
C         3.60327470609108    6.92486019184887    4.90600113994499
C         3.18356885725463    5.77559487350488    5.57101509130282
P         3.41089401938502    4.04387374370175    2.42679223044233
C         5.56170645616347    5.79153477370258    2.31183750820926
C         6.33597420733644    6.80725782153657    1.78007568096781
C         5.93596572621222    7.43797494705023    0.61409348631364
C         4.77123383993334    7.04013665165051   -0.02450062965342
C         3.99790945779751    6.02408142558404    0.50582028000870
C         4.38147403961450    5.40423820398355    1.69169200497016
C         1.43025038731301    6.09895994958752    2.48188734222520
C         0.16225966196868    6.55905619286568    2.79170972654471
C        -0.74319303466350    5.73700731615055    3.43966854515874
C        -0.37431447370173    4.44957957908814    3.79438109265551
C         0.89085614554318    3.98581206126742    3.48890960613250
C         1.79756574533580    4.80263719901239    2.81543155461934
C         1.74089259236727    2.73646122263386    0.53126454410190
C         1.55036298541354    1.96767402343153   -0.60403576205167
C         2.63154476289840    1.57804041741973   -1.37441358669406
C         3.91337654829940    1.96078831672806   -1.01234402110152
C         4.10909967826694    2.72965038660369    0.11698634977292
C         3.02268647516844    3.12778264548557    0.89410517057691
P         5.63118274678337    1.27806648110759    5.22557115382305
C         5.31834923766982    0.32889618870123    7.88527175815902
C         5.58766174290784    0.34872188166546    9.24243394691390
C         6.49414365457778    1.25492034145616    9.76345426678100
C         7.13445875446107    2.14531189188066    8.91739342730357
C         6.86596173245106    2.12746580660390    7.56289059828096
C         5.95779728411319    1.21681527352657    7.02882577674065
C         7.60894812868669    1.90904635499112    3.40089714831589
C         8.88514815363964    1.90219371899980    2.86728064369416
C         9.90007669479117    1.21568614888688    3.51326716764557
C         9.63508549934532    0.53074787188153    4.68898286521035
C         8.36011831504351    0.53348492304418    5.22460583096588
C         7.33840854937282    1.22757268568387    4.58331367954261
C         5.79156403380796   -1.38368657171757    4.25348938860234
C         5.23796071910697   -2.62017776491147    3.97052097841601
C         3.93067033111433   -2.90079193366398    4.32739379474633
C         3.16794676258689   -1.93805376048932    4.96771136286879
C         3.71453214542843   -0.70105738712192    5.25040848427302
C         5.03583763657763   -0.41839123070383    4.90624295500903
H         7.05890455461159    4.04497971178685    4.86933731955535
H         9.15477007060362    5.19169704724717    5.50305892207833
H         9.09974540970129    7.02007079698180    7.16490312444491
H         6.95514106047350    7.70823046413570    8.16530133342322
H         4.86428031671533    6.58519716917755    7.50952902000487
H         2.40249856615705    2.38281842045759    5.94943954627626
H         1.42149142706952    1.13975524253794    7.86179459079590
H         2.22950563746568    1.58206253271520   10.15206878279358
H         4.00227529020787    3.24939715954158   10.53097359898696
H         4.96485745739933    4.48970953241125    8.64570246307998
H         1.56198844538753    4.84864152914347    6.62377707396948
H         0.08941220590143    6.80634997390546    6.46186712010775
H         0.86148306549904    8.85079293779768    5.31894258493584
H         3.11286211382340    8.91380957577408    4.30488141575564
H         4.59101726763536    6.95943654570449    4.46772990115948
H         5.86791802463722    5.27596264906070    3.21528964929606
H         7.25145640115422    7.10329277306194    2.27238671122899
H         6.53601285945459    8.23216252829825    0.19438905520126
H         4.46831535672822    7.52244573806525   -0.94275342043039
H         3.10054558249464    5.69964736514757   -0.00385824983191
H         2.13072498546468    6.75524019902703    1.98665489087915
H        -0.11931868040658    7.56720357365394    2.52324755330914
H        -1.73328493030668    6.10157005532987    3.67209176340025
H        -1.07524769551310    3.80705174379312    4.30736719942210
H         1.18653488112281    2.97901124424545    3.75370133821518
H         0.89391000142721    3.02173138630565    1.13856172555261
H         0.55150591476467    1.66174697859450   -0.87882006183761
H         2.47817896981448    0.96606818309539   -2.25079805597982
H         4.76073401029886    1.64643736866019   -1.60376313054635
H         5.10898118147310    3.01577192576264    0.41936359989994
H         4.61648941739412   -0.39233172145460    7.49400026216840
H         5.08761089929899   -0.35182843096067    9.89546332874701
H         6.70380410727245    1.26538950841536   10.82297736108636
H         7.84628544829386    2.85561275534562    9.31318309323984
H         7.37444051194585    2.81936274285433    6.90752549959543
H         6.79950461109012    2.43354861543031    2.89796277455870
H         9.08950578203034    2.43177943150135    1.94801874028898
H        10.89831673844786    1.21019844920946    3.10021495617804
H        10.42583626916862   -0.01006914088246    5.18883888975120
H         8.15374198305016   -0.00312806046567    6.14068133697556
H         6.80532693346426   -1.16665894418886    3.94955107178074
H         5.82884091425528   -3.36292291482337    3.45462298418333
H         3.50020254101307   -3.86263721852032    4.09167384871264
H         2.14032043567396   -2.14429865332368    5.22850739063862
H         3.11061851178923    0.06737735752621    5.71535271981366

