70
CSD_code = WADZIL | q = 1 | S = 0 | Stoichiometry = C28H33Br2N4O2Zn(1+) | MND = 5
Zn        0.24511023595590    8.28711994718670   10.35969834169776
C         1.87702285705171    7.78417892681709    8.11589783160934
C         0.51327766279267    7.29731516213341    7.71210122663270
H         0.41612838932579    7.25307947392280    6.62129600386003
H         0.43504294308723    6.27803934847301    8.10202004221116
N        -0.54807101618699    8.10937720855924    8.32262803902375
C        -1.75589086842493    7.30526676903724    8.54843976366257
H        -1.44849120628320    6.45797979610017    9.16350184673296
H        -2.14042418281290    6.91626883156865    7.59472039648040
C        -2.89986258213340    8.05042881382228    9.24966984711818
H        -3.56238251790779    7.28917177498041    9.66368980124584
H        -3.48725093627226    8.59997224871799    8.51047634530450
C        -2.54038894651846    9.06851982928387   10.33903927913611
H        -2.14496230564360    9.97259780039819    9.87572909347320
H        -3.47746863710378    9.33731082949662   10.84813229302666
N        -1.55248865877159    8.64093350033205   11.34779021199361
C        -2.06247174944272    7.45029143584466   12.03723321785812
H        -3.05874945370032    7.64102836036140   12.44810970758804
H        -1.39618953331360    7.16479975013863   12.84489284033184
H        -2.10437296551857    6.61204274026911   11.35049893265343
C        -1.41927059327465    9.74596209812933   12.32046632014004
H        -2.36172089944237    9.83037183863036   12.87944703836404
H        -1.28427152815509   10.67185133883795   11.75724429861073
C        -0.27881005670256    9.61944969383287   13.33281954531565
H        -0.48989793423935   10.33377247741498   14.13181228618218
H        -0.28149544421415    8.63272211340369   13.79120673817032
C         1.11802479514152    9.95751095667985   12.80807660178959
H         1.79506030964958   10.06358804130918   13.66836026164492
H         1.06872868382402   10.92733845997726   12.30505618055000
N         1.66628741237318    8.97471236132900   11.86525001973797
C         2.85341214539973    9.49446048527869   11.17092044708764
H         3.75428488504123    9.38754688574152   11.78649949533613
H         2.71420652774127   10.56043724109350   10.96396794111888
C         3.03908618484786    8.79271310132656    9.85081972008361
C         4.25871007649405    8.53208020298085    9.24604797036714
H         5.18478335030320    8.80580233177258    9.72469930155800
C         4.25482023931104    7.88587742907721    8.01818637347923
H         5.18750123689915    7.66748991871509    7.52207040163690
C         3.05410749809817    7.49506083454816    7.44260528791004
H         3.03731251652599    6.96465740020044    6.50446795497976
N         1.90323570015751    8.44983463122226    9.26076276913467
C        -0.82786239607783    9.24626780569436    7.43232563019326
H        -1.64017007669617    9.83596942865044    7.85516930122680
H        -1.14361326707739    8.88068489922686    6.44568280094150
C         0.37838229728430   10.12747779490486    7.28467159916604
C         1.12210150999955   10.15198573603422    6.11726891715070
H         0.82496229771042    9.54757972237567    5.27419576424428
C         2.24965935962271   10.95256713700672    6.01860250981614
C         2.63272273663808   11.76688907295198    7.07025020120081
H         3.49904834482777   12.40218468202039    6.98175109756757
C         1.89049006657144   11.75349862531390    8.23703714596100
H         2.18168836378464   12.39296421227376    9.05924761802298
C         0.78487001769700   10.92513183722792    8.35655670655571
O         0.07769435028926   10.84276896440510    9.53152855953900
H         0.38312787390673   11.54473702589820   10.11980201750420
Br        3.28915482233946   10.90525470043547    4.42786365524075
C         2.06281857274225    7.74673322547384   12.59098403284755
H         1.17816083449967    7.34645178788521   13.08846905864956
H         2.81084457685858    7.99892416422919   13.35485982801997
C         2.59769489662612    6.68088420685752   11.67919977401879
C         3.92552574187924    6.29755838291198   11.73426412092326
H         4.60475557503834    6.78538444800539   12.41851513692738
C         4.39028187558351    5.28753397013421   10.91183756898189
C         3.52600579098233    4.61029412195614   10.06783462468445
H         3.89080991130941    3.80188546325837    9.45354599834106
C         2.20096483342158    4.98379233666292   10.01231895194176
H         1.52009713638879    4.45707523404069    9.36049055909089
C         1.70838725428756    6.04814250345500   10.78333169362559
O         0.46519808860442    6.45964152047814   10.65121422874764
Br        6.24828697700273    4.85197460128928   10.92732888403619

