68
CSD_code = WAFBEN | q = 1 | S = 0 | Stoichiometry = C29H32MnN2O4(1+) | MND = 6
Mn        5.43461475048920    2.53653893758785    3.41435885120307
O         5.68202225050669    2.15254546696851    5.14351576373982
N         5.13913627530742    3.15869309175640    1.57539971914605
O         5.05223463984971    0.90442875276203    2.79221585786544
O         3.27201670842391    2.83793278780948    3.90166182006707
O         7.58596950569697    2.06562338108766    3.01949847693639
N         5.89515584675504    4.38321358772022    3.89936673111420
C         5.13510902135456    5.40078003533287    3.18164341384265
H         5.12173146229597    6.35751639668090    3.71053785717798
H         4.10299337232893    5.03506303678443    3.13799020987527
C         6.69347337602996    2.50334407855616    5.86044666927308
C         7.37451805438301    3.73805338619151    5.65610935672279
C         8.47404478546382    4.03996726856903    6.50645675842500
H         9.01511809108642    4.95950231703624    6.35904184512837
C         8.88204269330631    3.20367160959770    7.49597613678940
H         9.72980685166324    3.46128551035101    8.11179160987083
C         8.20276472697046    1.98562438470469    7.75246259540962
C         8.59018310096175    1.10851339672053    8.77970210388560
H         9.43275641057683    1.37508627404468    9.39999930031032
C         7.91040485194819   -0.06358732018800    8.99305736358062
H         8.21315683549207   -0.72865722279435    9.78733234545324
C         6.82128062347898   -0.40716752385040    8.18485893170218
H         6.29432584854414   -1.33183110763128    8.36428929068402
C         6.42650938583527    0.42701528839510    7.17094340725992
H         5.59048977632345    0.17441166267736    6.53458583819701
C         7.10150694159134    1.63789261452597    6.93999385413044
C         6.85530371262420    4.70932698259000    4.72264841014189
C         7.42416251067851    6.09971932376912    4.80705668435356
H         7.00652880138565    6.77277104774976    4.06774069336699
H         8.49717507844144    6.05086086595803    4.63172463352833
H         7.26317537781221    6.51962203790117    5.79839151510956
C         5.63829158011722    5.58579224541542    1.74226298790966
H         4.84374927267449    6.04841115405269    1.15586201067653
H         6.50805192752877    6.24301364980124    1.71481597149474
C         6.03796871301762    4.22616243492379    1.14978089240587
H         6.11908765606261    4.28955199894587    0.06137504552864
H         7.02822922861211    3.96271062583220    1.53821138499888
C         4.17390389600768    2.73769218705848    0.80244990898772
C         3.74688335941284    3.46617436711388   -0.44293607339154
H         4.26450499303932    4.40819172453060   -0.57947642844572
H         2.68372447660757    3.68772558913542   -0.37300903538044
H         3.90474029491788    2.84513539448911   -1.32295587743512
C         3.50833479342526    1.48801456060457    1.08430075765525
C         2.40365051351171    1.04355115020068    0.30613247420776
H         1.97088683013135    1.71024306869590   -0.42067204772554
C         1.85893021589297   -0.19218205768530    0.45159000688037
H         1.01227468083487   -0.48825993489716   -0.14826017290127
C         2.39127882902208   -1.12317018859353    1.37935427798170
C         1.85962957013515   -2.41380655809569    1.54118165026873
H         1.01849678048057   -2.70914753509349    0.93206479395026
C         2.39924367032458   -3.28392804036550    2.45397434686649
H         1.98626851301710   -4.27452946382509    2.56802728241244
C         3.48689389365848   -2.89617377362847    3.24393457861856
H         3.90255723244113   -3.59085354490277    3.95774449951674
C         4.02093648566732   -1.64040826808129    3.11109757125463
H         4.85791216511091   -1.32355122720734    3.71672178835276
C         3.49106304467659   -0.73539875094507    2.17549207647723
C         4.04506180353923    0.59084166696034    2.05241496235653
C         2.83832850928421    3.15060188440716    5.22356958146303
H         1.76947401634797    3.37996797486260    5.21683074168001
H         3.39568526315926    4.02835209075040    5.54741597640508
H         3.03620910696324    2.32783939034050    5.91378990223634
C         7.97514453300547    1.07987845612873    2.06557687758372
H         9.06102117679410    1.09575889681540    1.94040743274887
H         7.49743783186017    1.33741466760802    1.12142700009317
H         7.65184157737142    0.08169895255085    2.36823580630188
H         8.02419626618539    1.84568581655981    3.85548852447753
H         2.76619563155754    2.06503904617363    3.60828047919403

