43
CSD_code = WAFDUF | q = 0 | S = 0 | Stoichiometry = C18H16ClN2O5Re | MND = 6
Re        0.61539472187410    4.87051151981563    8.89316783969413
Cl        2.85694242722533    4.17528081850896    8.92811142662986
O         0.03082317009576    3.32658748738862    8.99150979379754
O         1.25962846138611    6.59092046960559    8.68649792375448
O        -1.30638511910605    5.80967351773611    8.71942598438560
O         1.20885921349350    5.53228397038881    4.69074974369103
O        -0.21505024307763    5.92026756288758   12.88990713804439
N         0.77859075071835    4.86770672929702    6.76547634102657
N         0.52396552034046    5.21755773272165   10.92106448488290
C         1.75971573379376    7.40993381717028    7.81280122011916
C         1.78503630085844    7.06613487129228    6.43388690682271
C         2.32476483004282    7.95915486308503    5.50545840674346
H         2.33417085230748    7.67394759906743    4.46493181299790
C         2.83702206363049    9.17129524206608    5.91154982703284
H         3.25610527801956    9.85234307037474    5.18754547579100
C         2.81424400337545    9.51455018128113    7.25999901140377
H         3.21750630077359   10.46456250684683    7.57829823158873
C         2.28407248632626    8.65568725156751    8.19553029665185
H         2.26553246580189    8.91561877271968    9.24351347241121
C         1.24608941123092    5.79754428170835    6.00405837321135
C         0.65016633224059    4.23014915508500    4.51745684414942
H         1.39192690114384    3.60363740400975    4.01546096158503
H        -0.23682859262803    4.31985164293269    3.88524478969243
C         0.33025673547270    3.75685319031630    5.94675153523334
H        -0.73461406901361    3.59078848326381    6.12513314990643
H         0.87547955476324    2.85662044585654    6.24098294739101
C        -2.02984031339225    6.25590712806825    9.68019473813335
C        -1.68531434587351    6.28691543336182   11.06614241427502
C        -2.59600861934250    6.82825530957823   11.99767957347981
H        -2.30829768746582    6.83438978802680   13.03757773294794
C        -3.81002036628102    7.32769203981586   11.61330898666424
H        -4.49258147922676    7.73275182723796   12.34372204133136
C        -4.15880041309896    7.30581169598136   10.25909295960980
H        -5.11596772215344    7.69734925653557    9.94611946867190
C        -3.29894152802223    6.79253555164457    9.32940316802348
H        -3.55853606179641    6.76895101938976    8.28193457494440
C        -0.44286332377410    5.79246944272245   11.57688239245576
C         1.05789089912828    5.35384382246704   13.19565681866734
H         0.90855289185408    4.54778080994822   13.91852424309649
H         1.67868611689690    6.13242915231847   13.64724162102487
C         1.59074496968714    4.86015713480583   11.84365073904006
H         2.51937272526578    5.34716748944186   11.53596157201987
H         1.74550876651054    3.77903051165783   11.80449301697789

