67
CSD_code = WAFMAR | q = -1 | S = 0 | Stoichiometry = C38H25CrO3(1-) | MND = 8
Cr       -1.97800959339314   12.26456475994334    4.46826548521373
C        -2.45528061752625   13.36825638126319    2.57732301019431
C        -2.66068095890816   11.97791300395892    2.33980829480579
C        -1.40441574337824   11.31922210365459    2.51849514413717
C        -0.42829358572262   12.30210820213127    2.84007761174192
C        -1.07762285142161   13.57593905716281    2.87503063358318
C        -0.99434516997601   12.46511690322001    5.97044874865702
O        -0.44380926104611   12.56678365788829    7.00084053485170
C        -2.49946587985296   10.82575605336302    5.42865924691429
O        -2.83261806992165    9.94807915444033    6.13065997504129
C        -3.16478752432033   13.02282174339645    5.60017490551699
O        -3.89296786030043   13.46028882217282    6.40823279593040
C        -4.74479365220446   14.27936794313859    2.89353417323556
C        -5.70053134488231   15.24885438337897    2.66485217069860
C        -5.39591953926461   16.36902460981339    1.90719499423332
C        -4.12497636074489   16.50989521427251    1.37662880717988
C        -3.16625901075292   15.53905131110041    1.59680468483981
C        -3.46001605350797   14.41093941491602    2.36349566963744
C        -4.61990837411076   11.92271831182648    0.81123127085753
C        -5.76512512556252   11.31227887740967    0.33777625625380
C        -6.19394275533878   10.11246122504433    0.88034440755025
C        -5.46851747541168    9.53061695644216    1.90928205681042
C        -4.32935688989991   10.14030183749196    2.39318947061180
C        -3.88387750866783   11.34932182783318    1.85109995858079
C        -0.34745056131829    9.17034283962760    3.16236048386613
C        -0.05785259317220    7.84398162480591    2.91476855812412
C        -0.53936601488049    7.22249581746390    1.77252954599436
C        -1.31144652490691    7.94253296650352    0.87678099352914
C        -1.59751376734032    9.27340675636679    1.11507894272071
C        -1.12347965254065    9.90705156585527    2.26464995949237
C         1.76186303016639   12.69949084962933    3.94833141641724
C         3.12883207753786   12.52102523105227    4.01655188292156
C         3.78095583198891   11.72865187337795    3.08436320763691
C         3.05091825790901   11.11667282790832    2.07952782539349
C         1.68335280361666   11.29822226969090    2.00166823170740
C         1.01490406809391   12.08879352013880    2.93842270362345
C        -1.01617379166154   15.83982239228144    3.88101289547766
C        -0.43527958556156   17.08279836757313    4.02480529877124
C         0.73561639313270   17.39300586196990    3.34905361582355
C         1.31862768101902   16.44578497232740    2.52404316864508
C         0.73630028444853   15.20277834019905    2.36764148758661
C        -0.43985022960392   14.87710456485713    3.04710294861182
H        -4.97717823987931   13.41773724590671    3.50381414146842
H        -6.68962167102366   15.13541349222070    3.08620165124386
H        -6.14498873250246   17.12938038285780    1.73282055012969
H        -3.87909712495346   17.38030104695232    0.78278402492916
H        -2.17970768018219   15.65105282752145    1.16803383849265
H        -4.28500066961901   12.85146698947824    0.36956798984739
H        -6.32403910946521   11.77324797890933   -0.46607539033055
H        -7.08918548863488    9.63500373599361    0.50600111736701
H        -5.80115963997800    8.59738298900121    2.34236694917841
H        -3.78218793868396    9.69885251889966    3.21465245549092
H         0.00541866337105    9.64799719451101    4.06643414998957
H         0.54009635766236    7.28503821845540    3.62110305005518
H        -0.31679137143836    6.18115369509271    1.58368929640235
H        -1.69095885789569    7.46489419588154   -0.01688518577368
H        -2.19120664852450    9.83174458825209    0.40405614068149
H         1.25393514621183   13.29768035267320    4.69150673311020
H         3.69170364527807   12.99766359145190    4.80703683189676
H         4.85168780840425   11.58772219305568    3.14172820498574
H         3.55132358145546   10.49765416318334    1.34655006992782
H         1.12432040421366   10.82784539103845    1.20427340403370
H        -1.91318128144223   15.58888854489227    4.43112972358526
H        -0.89154524925696   17.81536508851934    4.67621208094650
H         1.19244807113959   18.36598667403580    3.46799184157086
H         2.23203000625013   16.67961098507366    1.99295534028660
H         1.19124951868066   14.47487151924988    1.70960751706579

