22
CSD_code = WAFNOG | q = 0 | S = 0 | Stoichiometry = C9H6CrO5S | MND = 9
Cr        8.35895072335658    3.33093254264551    3.65467940764562
S         9.58932728519716    4.42753123332137    1.24664633628579
O        10.63236759377006    5.39704252449904    1.46682018707086
O         9.24885516727830    4.08896609110957   -0.10432833999144
O         6.77363150241069    1.83546745685240    1.62856347512454
O         5.94683071732719    3.60237056110164    5.38601250996332
O         8.41407324639092    0.93728145348349    5.43176434217957
C         9.97680885625196    2.96467738069948    2.16612017196443
C        10.54980882692697    3.14565234716208    3.40328484391129
C        10.40100398674277    4.28301760234479    4.24581600705237
C         9.45685869188482    5.30361817509133    4.22789804557709
C         8.34907702036766    5.52408750966778    3.36210963694783
C         8.14508784329934    4.94299141080516    2.13212093394960
C         7.36618549741103    2.39377165425305    2.42926018681845
C         6.86320415415342    3.57171375813040    4.69474245643125
C         8.46565261086835    1.84033389642925    4.72434834008406
H        10.18078001995973    2.08190225681726    1.57944354350242
H        11.19560942158525    2.36267874086644    3.79719235311306
H        11.08877638106116    4.31377906161163    5.08663337088946
H         9.52632965534350    6.00267777601006    5.05712795954588
H         7.61221384508748    6.23615678127716    3.72977789792059
H         7.29166695332550    5.20484978582105    1.52506633401381

