102
CSD_code = WAFSIG | q = 1 | S = 0 | Stoichiometry = C35H58Cl3N4SiTi(1+) | MND = 5
Ti       -0.34536953249809    6.49847598015950    2.04403267285262
Cl        1.80283793459084    6.61750956151253    2.14819903226332
Cl       -0.88187563728303    6.26842053896671    4.12920169551743
Cl       -0.36726438127938    4.43580478842134    1.41737635089816
Si       -4.57249694669115   13.58008229388820    3.82557403468339
N        -0.60817819202595    8.45762087178387    1.76240424963087
N        -2.07945112094997    6.96454719672372    1.16863432414996
N        -7.31573322305626   10.61531938492578    3.97578350222369
H        -8.12505518185588   11.09261348668102    4.35137162115067
N        -6.14852724364843   12.62624396714593    3.86574418112172
C        -1.89286390536098    8.17223850386983    1.67259779767605
C        -2.99015048201843    9.03949631401328    2.18368125363492
C        -3.67682679196570    9.92456075540634    1.36022550439473
H        -3.40460186498114   10.00830548069720    0.31900345183744
C        -4.71074680626480   10.68789527768485    1.87442826239060
H        -5.25961428994973   11.36037918586445    1.23352811333149
C        -5.06534809257000   10.56793994132236    3.21366227183252
C        -4.38148250641431    9.67643530882139    4.03683874732740
H        -4.65980786399768    9.58119274824670    5.07517687949218
C        -3.34335967717932    8.92231045555928    3.52775732726925
H        -2.80352674683053    8.22774519736170    4.15863271920645
C        -6.23014410991712   11.32126911238425    3.72365814757108
C        -0.10438254045178    9.69299524630910    2.32398560029735
H        -0.89385010284902   10.46361555503488    2.28187316202668
C         0.31541245614089    9.48060794645465    3.78494981066096
H         1.05537778014056    8.67371782337941    3.81540083579620
H        -0.55131707043296    9.17258005084944    4.37827879777069
C         0.92179085272030   10.75819901691693    4.35936826668213
H         0.16791698506551   11.55069788418173    4.36203390954964
H         1.22762619876814   10.58261047394460    5.39140510222939
C         2.12174935483107   11.19907588571137    3.52756727930455
H         2.54397417443197   12.11669004025606    3.94009436380730
H         2.89031550335067   10.42621157782999    3.56756417498121
C         1.70724179374712   11.42241695077067    2.07690522052076
H         2.57313361595150   11.71666565873910    1.48320334530971
H         0.97581332080829   12.23395410205782    2.02671528818942
C         1.09961955795983   10.15009135971407    1.49496600661113
H         1.83910597749847    9.34582198826546    1.50096485566216
H         0.78486927437812   10.31366807280087    0.46136995532537
C        -3.38868746490976    6.36028758333596    1.03170397205729
H        -4.14711328747058    7.15508738347099    0.92222745626618
C        -3.72004252281704    5.51677891614461    2.27117288962069
H        -2.93245453340300    4.76603174967881    2.39685633858754
H        -3.72877482291378    6.15433614500996    3.16154602100040
C        -5.06949131800105    4.82415362205623    2.09929146241753
H        -5.85790618024959    5.57747759367819    2.00328190470441
H        -5.28629267150469    4.22176003970902    2.98260789243481
C        -5.05882091650063    3.94208433392242    0.85500240081496
H        -4.30229165077104    3.16546096901392    0.97300215866859
H        -6.02778797804775    3.45480488549946    0.73551482340733
C        -4.73803513656278    4.77445917623932   -0.38227908235713
H        -5.52464475381695    5.51838791645440   -0.53684454048745
H        -4.70869695884436    4.13345436326400   -1.26366558097495
C        -3.39365127142619    5.47681942909904   -0.21908670401070
H        -2.59665643724231    4.73699477403347   -0.11527495299158
H        -3.17415105367695    6.09176601811858   -1.09517200295186
C        -7.53667117939236    9.20139452123311    3.71079416991270
H        -6.64685972449426    8.79932993210720    3.22086623287213
C        -8.73770832250916    9.03140269201610    2.77818946678926
H        -8.56783667404322    9.58115819215145    1.84972217185026
H        -9.63451942417282    9.43312780438633    3.25602458944737
C        -8.94710570386842    7.54810089239192    2.47934317357633
H        -9.80958049342238    7.42824818964597    1.82356719449073
H        -8.07218796249173    7.15800111425584    1.95509831481938
C        -9.16069913908112    6.76473743828975    3.77088174759437
H       -10.08006977353321    7.10219105205861    4.25329283706350
H        -9.27489915973108    5.70534490534620    3.54268985221509
C        -7.98413707628889    6.96193814136377    4.72175511616545
H        -7.07646616544823    6.55270024083853    4.27337246177142
H        -8.16590411078473    6.42728502058505    5.65395055950349
C        -7.77759253136295    8.44567545693282    5.01869926432829
H        -8.66583708268386    8.84493317019343    5.51354049991224
H        -6.92674255521339    8.57821258237293    5.68905392736445
C        -7.34113959311926   13.46037285623783    4.07739213665491
H        -6.97266620237645   14.48490115521626    3.99375024899736
C        -7.96671815997822   13.34561078108296    5.47000725152214
H        -8.44593163337887   12.37819309601972    5.63558371785565
H        -7.19061639418584   13.46073163743589    6.22748239983689
C        -9.02549191169960   14.43785718380145    5.62571799532000
H        -9.49404056466577   14.35371353691706    6.60655303826319
H        -8.54980594598479   15.41837265858004    5.56746299505062
C       -10.08314046868592   14.32014455905149    4.53127089344728
H       -10.81677639270643   15.11777527692450    4.64500419287772
H       -10.61178905796788   13.36944250939452    4.63264985854364
C        -9.44506615792647   14.40579603383047    3.14723477825881
H        -8.98040522341627   15.38545557133544    3.02171756604738
H       -10.21014521459326   14.29958165820851    2.37772422063618
C        -8.39142596068194   13.31115442617439    2.97240792308358
H        -8.89229562851531   12.34268295621453    2.99677919529007
H        -7.90625079343072   13.40689120697507    1.99875956732764
C        -4.67881179180105   14.78420756483917    5.29510668240789
H        -3.74035647542886   15.32416006256194    5.37570159036868
H        -4.82588647406183   14.26796986348036    6.24003770896128
H        -5.45973277040127   15.53155080362946    5.20227497389153
C        -3.00491329188531   12.54931520696819    4.10842644262456
H        -2.71287846244264   11.95946856045667    3.24746060084685
H        -3.08068797082784   11.88319240698605    4.96149252067579
H        -2.19150895524543   13.23899367614366    4.31379779695841
C        -4.59308670317226   14.43000922917114    2.12629035521157
H        -3.85356903647010   15.22405944090891    2.10023585035786
H        -5.55399327720396   14.88030999493334    1.89331119488419
H        -4.34766392192668   13.74233385690428    1.32178215288354

