75
CSD_code = WAFWAD | q = 1 | S = 0 | Stoichiometry = C34H32AgN4O4(1+) | MND = 2
Ag        7.76375683274840   10.15324000124604   12.33524748771230
N         8.81911118155552    9.24223522230080   10.51753167964657
N         9.44736081087063    8.14396096249890   10.06941643994401
H         9.64882436807338    7.38100643079276   10.69500019013437
N         7.33877464452303    9.08518217048253   14.32766172323484
N         7.49343601094675    7.90420946071791   14.94521311447350
H         7.93444962843524    7.13131667921585   14.47299063101417
O        12.40464306217176    4.31077416217532    5.75515343177472
O         6.37507031920727   15.14118102628031    9.75855742211990
O         7.14897257335311    3.61103675621834   19.77793135642368
O         5.49815341709515   15.16501714344369   13.78650454977748
C         9.75131405356199    8.22478265848125    8.75394157104117
C         9.27442695429203    9.46165984275985    8.33465461512992
H         9.33752798314666    9.89176234868716    7.35820753672035
C         8.71220008994389   10.06021783804638    9.46541729370199
C         7.03747519644922    7.92640055904503   16.21757852811606
C         6.56169776726432    9.21473200049386   16.42632579485879
H         6.09580241074757    9.60081634779522   17.30772803858828
C         6.75870595924027    9.89410515778696   15.22028457245303
C        10.43686682397498    7.18497543779613    8.01606779196326
C        10.80369166523059    5.97590386276895    8.60767513620205
H        10.57828015267767    5.78046035531686    9.64613762040412
C        11.45901320013922    4.99374039628410    7.89194951444582
H        11.72396516173597    4.07409744839142    8.38870100283326
C        11.77000389612699    5.19494333714850    6.54766101406291
C        11.40413240447545    6.40583716440178    5.94687416682823
H        11.64933758977918    6.55147709517662    4.90738303175677
C        10.75296398558205    7.37729207260174    6.66521802422599
H        10.48515529551289    8.30140355308226    6.17982469411206
C        12.80964838068940    3.07002162059268    6.28977517417291
H        13.52409793876905    3.20116527811049    7.10785892353671
H        13.29405619532852    2.54246725719575    5.47044983065201
H        11.95294990794086    2.48614386801040    6.63922147447070
C         8.08520617900876   11.37005322016121    9.59424335571381
C         7.24716374853371   11.85403988819665    8.58669639042903
H         7.04208886280384   11.23638554800197    7.72599527532660
C         6.68417684404715   13.10282097008560    8.68533212713599
H         6.04100653565264   13.48835534570952    7.91075354367097
C         6.94961326450014   13.92456340402637    9.78906993514758
C         7.78231226779766   13.44882550635544   10.80127397573824
H         8.02874158328329   14.06803058115026   11.64927735940987
C         8.33740814580834   12.17985969901875   10.70510365708355
H         9.10064227385794   11.88410934805087   11.43062744277172
C         6.66055406273032   16.07203736889153   10.78181980051684
H         6.28729734215959   15.72798144940167   11.74942039050984
H         6.13861534406773   16.98343991381183   10.49652458792666
H         7.73353137356651   16.27556978413701   10.84482694376977
C         7.07567972531662    6.78365585214358   17.10602719777100
C         6.96985961667497    6.96751290074563   18.48939410114334
H         6.87740966471318    7.96473260035681   18.88877960354048
C         7.00097138905048    5.89486990533934   19.34563007868154
H         6.92450413607823    6.03019134582358   20.41227320772434
C         7.13250609099107    4.59017295055424   18.85372391083875
C         7.23281514888343    4.39865149661237   17.47601916556958
H         7.32589786856291    3.40779894396165   17.06115347371645
C         7.20650766040811    5.48290415549954   16.62130604607145
H         7.26280606361874    5.29972877030938   15.55771624436520
C         7.27478103850628    2.26932495205259   19.36136386727366
H         6.43702076622234    1.96763184769974   18.72573034464521
H         7.26457033040451    1.67734619961059   20.27448396733468
H         8.21755764890070    2.10133057405212   18.83224224448333
C         6.43157849265888   11.27040966576481   14.87123338912988
C         5.91826392298332   11.58336846934098   13.60513452665910
H         5.61500351304970   10.78255544595610   12.92498584838910
C         5.61199969274221   12.89025437235770   13.28061993550589
H         5.17692356456940   13.13746004608198   12.32486472746891
C         5.81792661932053   13.91850548663581   14.20626831213764
C         6.31629805172500   13.60693922515438   15.46965546387971
H         6.47002311932961   14.37672843562978   16.20832074692554
C         6.61450211222749   12.29747541535640   15.79181866995495
H         7.00444964203344   12.06762561584045   16.77151987437500
C         5.57073624360636   16.23929838421807   14.70158567241802
H         4.92793931899041   16.06679162961944   15.56837864794417
H         5.21470210827419   17.11159615947157   14.15678077831340
H         6.59854276074588   16.41390161148482   15.03278179211813

