57
CSD_code = WAFXUZ | q = 0 | S = 0 | Stoichiometry = C23H25N2O6Re | MND = 8
C         8.09411733930932    6.20384993208348    0.74898854780142
C         5.35114917071028    5.95349793441485    0.93408907626119
C         6.90832966807336    5.39013551046764    3.16655756228008
C         7.35342313119238    9.15855617404483    1.76093905132259
H         8.06490737727935    9.59520539342794    1.07458216320504
C         5.95019582779143    9.07865330671894    1.56887114739198
H         5.40869719856247    9.45466957932551    0.71321328921677
C         5.36883078383578    8.62402962285158    2.77987948273741
H         4.31593369813804    8.58724359847926    3.01339807428672
C         6.40922768198946    8.41841725860407    3.72674242254049
C         7.64682568566604    8.72522620746210    3.07908285113354
H         8.60772936958468    8.83418150409178    3.55757681384281
C         6.17056080211308    8.10562520160683    5.16179670357588
C         7.20809494741977    7.32139410776591    7.23256648048492
H         6.19816371347501    6.95609431703407    7.44264916949315
H         7.38556124376830    8.19830052136408    7.87058018970191
C         8.25587266241941    6.25063039021123    7.52287415055367
H         8.14152879834151    5.91485654596429    8.55422659673833
H         8.08816699607609    5.39662545592009    6.86516979127229
C         9.67814099465269    6.78676456396731    7.33151710669991
H        10.40533277067036    6.08229759789034    7.76424129046372
H         9.76847728779234    7.72845808165802    7.87976575636876
C        10.85473198130366    8.16945691168828    5.71605319616431
H        11.84319530072566    7.99886721445785    6.18668737350869
H        10.41231290129667    9.05098604229178    6.19136264794327
C        11.05452806835777    8.43629957194764    4.24803495811459
C        11.40925938948477    9.71704899957976    3.82244306977882
H        11.53504102203600   10.48842637694532    4.56653446744594
C        11.58685630562891   10.00250918880173    2.48281004194189
C        12.14010561835388   12.28092957892827    2.87160764415678
H        11.23938355085273   12.52290965943033    3.44667955336637
H        12.41124921200529   13.13626462015348    2.25488504927727
H        12.96109225766491   12.05838871003294    3.56166603658098
C        10.50417605491630    5.86805662015838    5.24678149781130
H         9.91526249496447    4.99384835166704    5.53029434187845
H        11.55031908804372    5.68965022480713    5.55250185672598
C        10.43384692218191    6.05806613604214    3.73474441210353
H         9.39899192180885    5.92277563538311    3.39506963545727
H        11.03532042865551    5.29355523067127    3.23955389077751
C        10.88841623860611    7.42714382085159    3.31704968474964
C        11.07648047251793    7.70435269174571    1.96362315880324
H        10.94424441249990    6.90079128046571    1.25782337767580
C        11.41521160796556    8.97087522137445    1.53003926958362
C        11.49023129113015    8.33870912599488   -0.75896405768686
H        12.22725663290194    7.54322997878283   -0.61010155315905
H        11.69077877532257    8.84374655712819   -1.70243570720158
H        10.48822027136126    7.89837660049446   -0.78903437886779
N         7.26224639973635    7.70393197501883    5.84169767469008
N         9.96804941467177    7.03800754816897    5.92291777229651
O         8.92175682615580    5.86719101912551    0.02691307050532
O         4.49263583749504    5.48034083210175    0.34525688118019
O         6.99713280136538    4.57833721795040    3.97045832269834
O         5.06660877918176    8.22051784589250    5.66968398051397
O        11.91585408578269   11.22353436610642    1.97483581995179
O        11.59640614858858    9.33304189134934    0.23073769855976
Re        6.72765905832745    6.88977450502838    1.94232166095141
H         8.18107127926081    7.58924564406694    5.41935993435447

