107
CSD_code = WAFYOT | q = 1 | S = 0 | Stoichiometry = C52H48N2P4Rh(1+) | MND = 4
Rh        9.27681582753486    9.25315120093165    5.59947105048514
P         9.56708227458766    8.12628844916608    8.29942751630111
P         9.19346172513072   10.73802189801051    7.27090691806735
P         8.64360961014452    8.14634354672072    2.95388284532319
P         9.78738687891395   10.57167075707570    3.86541786914718
N         8.80846704619362    7.73061867164908    6.94902740214845
N         9.26660083053350    7.60225989952360    4.32206189099185
C         9.04666021642149    6.38471406550512    6.39999355325677
H         8.44679392021887    5.64403769236638    6.94457612277053
H        10.10067058113624    6.08633365224428    6.47834471710707
C         8.64575981930706    6.41205524740398    4.92879009545388
H         8.99677285058724    5.50418111291712    4.42136019644208
H         7.55012553029755    6.43489690330277    4.85681687922310
C        11.36242858866040    8.43310844213489    8.23073208639114
C        12.02655415562045    8.36453666707324    7.01129332916538
H        11.46935572716828    8.11701686567965    6.10480929644573
C        13.38240065467184    8.63487213360667    6.95256972825827
H        13.90465142911340    8.57707668910177    6.00948454167799
C        14.06870303095240    8.98662620245921    8.10320635143692
H        15.12532876648929    9.20173816678130    8.05584301369758
C        13.40483243052671    9.06490350274335    9.31776929478102
H        13.94189665517973    9.34549390004860   10.21101107355572
C        12.05394760997497    8.78110781484081    9.38675883937209
H        11.52990963121085    8.82735544361225   10.33222131687886
C         9.29385943820329    6.87865140680884    9.58435088788796
C         7.98179165026103    6.68540891295806   10.00573912729652
H         7.19741600560964    7.31363116437387    9.60436586303294
C         7.69079547640931    5.69248328831719   10.92159513942023
H         6.67486696811296    5.54549962444370   11.25575971476527
C         8.70649632084561    4.88262887878025   11.40704527464612
H         8.47970276626091    4.10680887751028   12.12203565195099
C        10.00947641531706    5.05965992141416   10.97058604491583
H        10.79547008941665    4.41950352154556   11.34151449053947
C        10.30751889894260    6.05394176254488   10.05513603975134
H        11.32216499237323    6.19312160909162    9.70809719566286
C         8.83394283264913    9.71245026803896    8.79595521983296
H         9.28575441842530   10.10669914382161    9.70807964601284
H         7.75899601945779    9.57258075992915    8.93534103216331
C        10.65294283450084   11.64612554605390    7.87350829802649
C        11.82744178933720   11.59104252706858    7.13678250438241
H        11.83522990782589   11.03491826256285    6.21053423008050
C        12.96694465957284   12.23226362087412    7.58793772759825
H        13.87524244188968   12.18377056265614    7.00634970152137
C        12.93622449486202   12.93213396560262    8.78163168551088
H        13.82368172768760   13.43101119955676    9.14035333730159
C        11.76219808296558   13.00006858644699    9.51741143192003
H        11.73752394661586   13.55474259970661   10.44360482362986
C        10.62169204389815   12.36311401504144    9.06738672006835
H         9.70199665021097   12.43316809855458    9.63355795739531
C         7.87999056921616   11.99792242269074    7.35737277863586
C         8.15281909402789   13.35418825548615    7.21586565672989
H         9.17753900590137   13.68926432177547    7.13965280230531
C         7.11484568716458   14.26817641489609    7.17356360680285
H         7.33226278272503   15.32086647533002    7.07311293321079
C         5.80126505608323   13.83709589037776    7.25579039134108
H         4.99470083363033   14.55385957944979    7.22623287190787
C         5.52162936974820   12.48366226205733    7.36456468346773
H         4.49660211986849   12.14666118697917    7.41500235251713
C         6.55515181201759   11.56757467240628    7.40387936187474
H         6.34154499082660   10.50717607055756    7.45592502049572
C         8.51837564073771    6.82100637810658    1.72515811650950
C         9.70816126073161    6.23780507492669    1.30031744379953
H        10.64982141235743    6.62497535218549    1.66679297556411
C         9.67794678901936    5.16914234282086    0.42481368581795
H        10.59979594060017    4.72018790374613    0.08716911030679
C         8.46046855427296    4.67265663050370   -0.01606686927698
H         8.43647137747666    3.83857792218022   -0.70036798511476
C         7.27488819258597    5.23742248309119    0.42562888795268
H         6.32891727849197    4.84020881572484    0.09017608358209
C         7.29877313898645    6.30956533968380    1.30040860490365
H         6.37629927124431    6.75169124994202    1.65109833013899
C         7.02101358885298    8.97519379214951    3.00348914237409
C         6.37790783837627    9.16278817047876    4.22164158884673
H         6.84412698550185    8.80109449802783    5.14112877187903
C         5.16503241889275    9.82795210785792    4.26129589890261
H         4.65773146558279    9.97128244690275    5.20343921235128
C         4.60468405979877   10.31660051864652    3.09253836848480
H         3.66108637251626   10.83962072155161    3.12498948257691
C         5.25031712820109   10.13795129260440    1.87874499058016
H         4.81336666889537   10.52535611303384    0.97098000675129
C         6.45411641539788    9.46084719447034    1.82940228686434
H         6.95918123224320    9.30493051277261    0.88532110853085
C         9.80702131313400    9.42119660633646    2.38757737232191
H         9.47899994498986    9.89313997273912    1.45951670007667
H        10.79080514686633    8.96449557032895    2.25344486984232
C         8.66575329176752   11.85129125384107    3.21555345732680
C         8.90895252325416   12.47834769490795    1.99562397964558
H         9.80593878035031   12.24595931206397    1.43640185756624
C         8.01234923626592   13.41088714150919    1.51046800809470
H         8.20183903679280   13.89677710368077    0.56489274586554
C         6.87281062054873   13.72671943311095    2.23576755868141
H         6.17587569108991   14.45488525062477    1.84950223551531
C         6.63409583549156   13.11413556149555    3.45372309248836
H         5.75300907947402   13.36202703976508    4.02627822759516
C         7.52940308907864   12.17914235329978    3.94107894565216
H         7.35592253560189   11.68757498338857    4.88738847700035
C        11.42097967398235   11.36740827311756    3.72811308959317
C        11.57805934760526   12.74749276705726    3.79358458453380
H        10.70634247439079   13.38451072505780    3.84219722028338
C        12.84670746762979   13.30005159548900    3.79551190739404
H        12.96327226362637   14.37256058206839    3.83624488693076
C        13.96418256513027   12.48328750032226    3.74925111871772
H        14.95181302226563   12.91888800107136    3.74726488458673
C        13.81463481803091   11.10540124790675    3.71725448575166
H        14.68663519141243   10.46826854867522    3.69537859325905
C        12.54974428953879   10.54971668216811    3.71763240072327
H        12.42673174711579    9.47369333795337    3.72525192443860

