78
CSD_code = WAFZEI | q = 0 | S = 0 | Stoichiometry = C32H40N2OSi2W | MND = 5
W         3.02817236790004    3.63674276275525   12.80776021508746
Si        1.27671608539837    5.50993027179090   11.05109724439963
Si        5.59474776284037    4.40711155738630   14.90401646266497
O         1.41583687245230    2.68238281484616   13.09768489321091
N         3.51891913992279    1.49729960460065   12.44173620944211
N         4.35775095363920    4.28508348673803   11.78317614455814
C         1.15045778957784    1.35062439445454   12.84569468308328
C         2.48149955282712    0.64776500222500   12.57077430738941
C         4.73969563999225    0.97475156993112   12.21656041550674
C         4.96305016486495   -0.38111455082546   12.12306661657713
C         3.89233868420737   -1.25916842416996   12.27345230716185
C         2.63276338581774   -0.72814806996653   12.50671771975620
C         0.53482983699905    0.66722224994831   14.07089188637573
C         0.92681006784932    1.09713497992668   15.33068722503314
C         0.41696403293247    0.49183952162590   16.46465921248718
C        -0.48463506640891   -0.55239785405510   16.34624485840964
C        -0.87690134501366   -0.98450633890133   15.09066685513248
C        -0.37024190336823   -0.37890766550136   13.95378578929821
C         0.18916256273909    1.26924556811686   11.65846697282034
C         0.46005587813137    0.58376819216323   10.48272461849364
C        -0.45003598985159    0.61083732894555    9.43808766942310
C        -1.63006150352971    1.32380639169531    9.55577677035101
C        -1.90131389486111    2.01525364566145   10.72535192189252
C        -0.99666821574683    1.98831470006938   11.76945852376092
C         1.76011458635682    5.43405343154225   12.88693754774716
C         1.67906312192932    3.87910284957765   10.07661879502157
C        -0.59829489548051    5.80418365466805   10.76427971147888
C         2.23219179078727    6.90027023783448   10.14438823232128
C         3.92537260170777    3.62495434785697   14.60267514057210
C         5.46752510981845    6.26288034703702   14.42364219227009
C         6.98554271893351    3.59926325634230   13.85313940319953
C         6.17703448035649    4.30611474095666   16.73005644283014
C         5.13515672220274    4.54363670402137   10.72382183118990
C         5.80121977409903    5.77748087824426   10.56185248508105
C         6.58111324305580    6.02125635228885    9.45338195641061
C         6.74224968880751    5.05597664024527    8.46995938161735
C         6.10477640974445    3.83243981621675    8.61081492034910
C         5.31455230799710    3.57539216930726    9.70908011110912
H         5.54458222645574    1.69532784701519   12.13155906661622
H         5.95931202867311   -0.75097985848431   11.94117863724507
H         4.03640917791439   -2.32640239439892   12.21446852132580
H         1.77420115698501   -1.36815863761392   12.63814392025988
H         1.62568826010223    1.92119380272217   15.40526807454357
H         0.72467622434617    0.83512798564824   17.44117098730640
H        -0.88414502941388   -1.02713300223994   17.23007158154802
H        -1.58378774745367   -1.79553034417846   14.99381539032055
H        -0.69051374003594   -0.71353578249838   12.97691284724700
H         1.38127030088980    0.02952934917660   10.36895947925654
H        -0.22977457367163    0.07512467409238    8.52622013394575
H        -2.33437586351446    1.34354986489809    8.73756355387447
H        -2.81848392236932    2.57718967798419   10.82261507598124
H        -1.19353760301301    2.53018524212020   12.68352024606152
H         2.19593089027242    6.38820217790531   13.20242716746441
H         0.87153159523811    5.26548107131202   13.51174737088290
H         2.22258046015044    3.15770832411841   10.71276158555793
H         2.31397147971835    4.08805671807461    9.21879331752440
H         0.78026383035595    3.38892949332135    9.71037218159036
H        -1.20050855631885    5.03071135858914   11.23088521378847
H        -0.83688262228283    5.81231713091752    9.70555521668209
H        -0.90904748577206    6.75765827219421   11.17751183174279
H         3.30515267065941    6.74616964685983   10.21074215141831
H         2.00870378592269    7.87273117119904   10.56962908625008
H         1.96721818349518    6.93455014875622    9.09239274907867
H         3.43423742699636    3.28838371018621   15.52479687672973
H         5.04902476571454    6.86055716978380   15.22750241882934
H         4.80690520930764    6.34670434094935   13.56097091790514
H         6.43311503891577    6.68598862830419   14.16546824186616
H         7.11126799780951    2.54630678478457   14.08828599048312
H         7.94025202428553    4.08807859446602   14.02065423381786
H         6.75061369405961    3.68919885800683   12.79726180880619
H         6.32666318393495    3.27798558529438   17.04412219321761
H         5.44758926195976    4.74971799295377   17.39985574140935
H         7.11506863540277    4.83141601728261   16.87563852167612
H         5.68237460599887    6.52521715834003   11.33247426476473
H         7.07696374690185    6.97684573417740    9.35204696337476
H         7.35818823983887    5.25361244087327    7.60554965390173
H         6.22431120902541    3.07249755279503    7.84988491321110
H         4.81315931289008    2.61810892869271    9.81581419896457

