35
CSD_code = WAFZOT | q = 1 | S = 0 | Stoichiometry = C15H13MoO6(1+) | MND = 9
Mo        9.55871466844902    1.17930647839938    3.43703255412813
O         8.61817444718839    0.41656882651044    5.31509508155246
O         5.22147915420387    0.47662053694226    8.62308862165251
O         6.98726593784621    1.89643509198757    5.24199103626813
O         9.05022612164340    3.36679970580633    1.30680684161117
C         5.86057191551530    2.46148320765486    5.73226813489874
O         9.33492111230916    3.92393880408147    4.85059709168649
C        11.07632197863993    0.25416448993658    1.99967073560686
H        11.17712437487101    0.34449159156295    0.92388552419564
C        11.78906804715074    1.04241484845318    2.96144868644922
H        12.49536996939897    1.82822533998524    2.72077894149561
C         5.27889276204793    1.98678236725460    6.85687513865652
H         4.38169462067314    2.42620262226483    7.25581820265644
C         9.29340953226705    2.54433512082849    2.05942208418812
C         5.85769468594424    0.87422002290264    7.54410700942211
C         5.38030206190082    3.60568303534155    4.91855126496653
H         4.46133412600332    4.01145063386633    5.32660011818972
H         5.21254533699456    3.28529929562866    3.89087997873434
H         6.14093656782773    4.38571308831732    4.89449338274149
C         9.38552408706564    2.89520532208727    4.36079899485689
C        10.48652342437302   -0.83592176057131    2.68124297801114
H        10.02047669927809   -1.69446716341006    2.21588764279122
C         7.58265573714429    0.84593640177965    5.85679684078093
C        11.60285134623444    0.45149652708063    4.22500263536285
H        12.14062664111449    0.70505257269895    5.12971123301978
C         5.70673912580046   -0.62301722287949    9.37663992447647
H         5.72766688735737   -1.53313417675551    8.77370609619295
H         5.00400734180785   -0.74586662737816   10.19777800746036
H         6.70223286421041   -0.41722781627602    9.77506806270921
C        10.80842102829283   -0.71345396153745    4.04403750377936
H        10.59953802116914   -1.45215539506239    4.81018285612192
C         7.01736586356740    0.31695985191256    7.02853318524794
H         7.52050024665690   -0.51733960001832    7.48572271783978
C         7.73890117363281    0.94930006601320    2.75440671372621
O         6.70342209141893    0.82299787458978    2.29297417852157

