58
CSD_code = WAGBIQ | q = 0 | S = 0 | Stoichiometry = C18H30B9Ir | MND = 9
Ir        6.91536025298476    5.57637712000457    3.98060118406751
C         7.25337923118216    4.36649031175893    5.95877257692806
C         5.90556945323859    5.17371121068040    5.88611304085735
B         7.43147517770783    3.42105909381698    4.66470779344808
B         6.99097284558774    2.65539762984724    6.19893968289139
B         6.03844959668485    3.81487624567750    7.04541578256411
B         4.87222831422150    4.83236926869847    4.63520130710991
B         5.81737639996179    3.69811274935442    3.65378109277599
B         6.14428557319299    2.27266373955775    4.67537721220892
B         5.24473506498384    2.46771007971371    6.23193419412802
B         4.54754482701035    4.11513783842254    6.21198413644927
B         4.52776252541633    3.12412266013713    4.75536681175831
C         8.43104642248396    5.06878162683763    6.61876588331163
C         8.43680116508608    6.55640443128177    6.39985448898851
C         9.63703837381952    7.24978908311319    6.30411714700900
C         9.65319917905124    8.62909544381340    6.20095481448563
C         8.46014521724683    9.33252622772390    6.18681561322505
C         7.26020338669187    8.64999903321751    6.26974429539059
C         7.23380181992549    7.26400605827507    6.37707707518359
C         5.92929663559754    6.53580243475425    6.56716414027170
C         8.76694694287859    6.00096841117300    2.98224257708677
C         7.98726444643036    5.21864775367133    2.12370773671423
C         7.27361906166741    5.71879492646092    0.88475976954261
C         5.99330875813223    6.47318534116112    1.27056849049874
C         6.06758003348216    7.00063382967984    2.70527151963400
C         6.79243581551392    8.34457856902462    2.81204673641635
C         8.16856515097340    8.40079128528502    2.15915307619521
C         9.17429135971670    7.44584024773597    2.79850601531609
H         8.50350724671857    3.23480539243195    4.21051330134950
H         7.82710264565574    2.03823790326764    6.75135966700080
H         6.19333847625876    4.10003397307757    8.17922389587954
H         4.07733902438191    5.63148356650693    4.29104565101465
H         5.72776844166990    3.51603002503730    2.49638287209069
H         6.24486937293682    1.22348526374610    4.14746064300425
H         4.73976768469528    1.58276626630535    6.82096873320517
H         3.63236135054516    4.53033493248947    6.82649077762798
H         3.55934098264054    2.65480859089338    4.27832636532564
H         9.36745492027634    4.64452218283149    6.24394299754774
H         8.42527655538647    4.89786775254415    7.70393858369922
H        10.56826956659566    6.70069257381847    6.32269802698924
H        10.59448696011044    9.15438872291677    6.13581841678720
H         8.46468758645672   10.40950637191855    6.11141269471878
H         6.32772106209123    9.19754736646368    6.27230585022416
H         5.76737832255994    6.42450273267280    7.64753958614483
H         5.10881730362060    7.15361454633388    6.18998911866280
H         9.53361230276532    5.46287231571127    3.53861430936972
H         8.23283759366933    4.16361443309202    2.08001610220028
H         7.01672723820863    4.86496910938694    0.25864829245749
H         7.95283485736976    6.34604181379446    0.30687364589740
H         5.15639168280902    5.77922626682896    1.21717786753711
H         5.79360310884710    7.29017244528771    0.57178212713138
H         5.04229653832700    7.18762333993512    3.03609734067749
H         6.16530236816342    9.10705024900557    2.33477809933399
H         6.88717296714157    8.62791444147451    3.86283141155126
H         8.07538651309724    8.20657834277785    1.09390217020469
H         8.56303786362244    9.41619799219285    2.26305280142591
H        10.08888425585747    7.44674940615666    2.19302298192937
H         9.44934217665105    7.84418903022227    3.77824147455516

