52
CSD_code = WAGDIS | q = 0 | S = 0 | Stoichiometry = C20H22BN7ORu | MND = 6
Ru        2.81091197150487   10.45569594465528    2.65512920086400
O         0.06649172257165   10.67818940933600    3.81401378826615
N         3.67181128008788   11.17796283413082    4.36404435530974
N         4.76266367368698   10.59662729479909    4.87074284291530
N         4.75330299973038   10.25830094857781    1.94013922226212
N         5.70937949666638    9.78175815979654    2.74045185565057
N         3.19261946304471    8.47405267953887    3.49766861490758
N         4.34850835027221    8.27041320148428    4.12908275795634
N         2.16510571644043    9.77020623005176    1.02111186990037
B         5.40789496797611    9.38156312398004    4.19190439747213
C         3.33535236867300   12.17643152886280    5.17103044230826
H         2.47792985057942   12.79062735116312    4.96738893296748
C         4.23633684204866   12.24679228148246    6.23302582411996
H         4.23535738564237   12.94144010493099    7.04727543936303
C         5.12707919963326   11.22114615686243    6.00057830467352
H         5.98391035750681   10.90373784503140    6.55935711919988
C         5.29180058018498   10.44420352595398    0.74240394134953
H         4.71602835723595   10.82580430646695   -0.08036464855253
C         6.63806791948816   10.08201498891610    0.76631794504936
H         7.34098888415549   10.12114511300581   -0.04011796833677
C         6.85904864895819    9.66469154310277    2.06128319583524
H         7.74854460321935    9.29913381298691    2.53282970438464
C         2.48635254673827    7.35766162225805    3.57524986969008
H         1.50821275779138    7.29140315363572    3.13612845197522
C         3.20714354028637    6.39207528097067    4.27943850282109
H         2.90880419056369    5.39026011028094    4.51026483866496
C         4.38867830490135    7.01987218124222    4.61273066695621
H         5.23967004351358    6.66033179709175    5.15469239549923
C         1.85485196455421    9.36034655608235   -0.01371641909639
C         1.42774015132648    8.86088435494232   -1.29323646810147
H         2.17827837359031    8.18181980769761   -1.69826417995906
H         1.28442725385228    9.68934490679979   -1.98770977869954
H         0.48526666703569    8.32412414337017   -1.18242972070797
C         1.11974107934788   10.60802277593454    3.35404812118711
C         2.75885566212626   12.40446367988700    1.82391073100942
H         3.41416547941624   13.07140097468348    2.40518810942891
H         3.18588552746824   12.37654917681231    0.80937954840383
C         1.39231199215280   13.09493481408176    1.69966936470409
H         0.97067171377102   13.26929957799240    2.69185900866893
H         0.70581213049056   12.45377342980723    1.13938529765127
C         1.55675836496836   14.40549497775409    0.98423414975502
C         1.44462292029703   14.47780844295239   -0.39906963646146
H         1.18653555468011   13.58653569028174   -0.95491773219154
C         1.65221106069514   15.67091536642315   -1.06729408789609
H         1.55625416896339   15.71064308916201   -2.14350987157376
C         1.97986104536998   16.81487972976372   -0.35979096022809
H         2.14045145080989   17.74830198501331   -0.87977456444350
C         2.09827298480855   16.75525426589003    1.01839390838452
H         2.35257436209231   17.64508367434080    1.57697227969657
C         1.88952790020674   15.56011004048596    1.68249447714616
H         1.98188013889661   15.51928457333209    2.75886618019134
H         6.38184602997881    9.02568143591236    4.75971037965495

