65
CSD_code = WAGFIV | q = 0 | S = 0 | Stoichiometry = C27H30Cl4CuN3 | MND = 3
Cu        3.41448116144666    6.52770308337561   12.06882348114618
N         4.56044392149756    5.03360658636301   11.53249744870802
N         1.77886837592002    6.11729432292317   13.20153525456304
H         1.00365597547723    5.91284141263472   12.57422443372616
H         2.04213777569826    5.24862709542516   13.66586894438606
C         5.51296616805786    7.78611549109271   10.66490155329451
C         6.22461596250963    8.97278491481480   10.06701620852774
H         5.50686222349989    9.66859270366771    9.63448154768400
H         6.92644137019295    8.66133053564102    9.29885076721009
H         6.77793500953826    9.50233163993689   10.84247556684709
C         6.11408504675219    6.53907992198863   10.50283070445509
H         7.06264796378255    6.55397293667485    9.98568862517643
C         5.67940106957650    5.26938489112818   10.87945413320622
N         4.37156733678618    7.98798638760455   11.29193079291202
C         6.59641111067421    4.12314579494905   10.53280978743111
H         6.35529110158247    3.23708334087380   11.11732583671727
H         7.63155268775687    4.40071300743860   10.71883637662530
H         6.49887607539489    3.87456968403257    9.47653265833490
C         0.31701791721055    6.50199765449140   15.16614384889026
H         0.73178836124441    5.62355861324290   15.66791688241845
H        -0.56417060511554    6.18500832109494   14.60129096553493
C         2.19002661590407    8.56950313803904   16.05720683458316
H         3.07556391086075    8.86952688212569   16.62650883745929
C         2.58931517500535    7.52046136552183   15.02166250012220
H         3.34070464126351    7.92250147455237   14.33798745527208
H         3.02068820763724    6.64859223809898   15.51770373395530
C         1.36053300843223    7.09978758867243   14.21802950493553
C         0.76557483648332    8.31696500956152   13.51452782865925
H        -0.11129994101151    8.01857371452118   12.93392315719958
H         1.50330003504948    8.72933522414968   12.82561329969017
C         0.36830897067307    9.36494154813000   14.55272986316568
H        -0.05194629329565   10.23653964793876   14.04017538175773
C         1.60174563292391    9.78757437533092   15.34787558250599
H         1.32700315595861   10.54797064526605   16.08177670854122
H         2.34302640762503   10.21957454865282   14.67354837154614
Cl        5.68232533897929    9.62568782946763   13.43376338874544
Cl        2.04783708346092    8.58978986495313    9.60807991500107
C         2.70572962147994    9.67238661868959   10.78655491053292
C         4.02988732001704    3.78206927557343   11.73257095753416
C         4.32749791865315   10.12672257143906   12.47560961173312
C         3.84092446405215    9.24747222721014   11.49625082491121
Cl        3.68759214352524    3.56837189069032    9.06060630155135
Cl        4.37935583385315    4.24588879439638   14.36277319862633
C         3.82564733404695    3.28200603788519   13.02950842200263
C         3.54608649788073    2.97981090114800   10.68224201412787
C         2.10669856002298   10.89496266137866   11.01713940636688
H         1.23961836295914   11.17927588904589   10.44293328791971
C         3.21309828655700    2.06933914787766   13.27224480773323
H         3.09237101703480    1.72712582189846   14.28794521913484
C         3.73604823163726   11.35188196496992   12.71899815133541
H         4.14586062032923   11.99720803334232   13.48002773578289
C        -0.67458823571672    8.77105572904023   15.49939820783666
H        -0.97287348291841    9.51664680912562   16.23888489139393
H        -1.56632633020154    8.48153129992897   14.93868874167750
C         2.77052881409532    1.30279193456190   12.20665444830196
H         2.29789298636784    0.35079756537587   12.38618303016339
C         2.93088576093065    1.76488870038392   10.91044580839686
H         2.57968625437059    1.18385291466263   10.07247113205527
C         1.14947546004473    7.97319744430417   17.00483896431660
H         0.86608359469055    8.71094166682122   17.75802556796751
H         1.57030650527866    7.10942019052371   17.52414677743010
C         2.62921164221204   11.74053076023444   11.98228139582058
H         2.16987811937245   12.69828767303106   12.16594569043909
C        -0.08260154114690    7.55153369738744   16.20523633749578
H        -0.82945855482668    7.12244834466158   16.88244597651468

