69
CSD_code = WAGFUH | q = 1 | S = 0 | Stoichiometry = C36H30AuP2(1+) | MND = 2
C         9.31717486764988   14.95509023658720    7.79488145823905
C         9.22760474941719   13.69430806361390    7.21428087863758
H         8.94398132781441   13.59214563796856    6.17572554138270
C         9.49577121993018   12.57206248924828    7.97796288868880
H         9.42641340814434   11.59242032925723    7.53000685627380
C         9.85303770668705   12.70236052074204    9.31029978013600
H        10.06113136066673   11.82273923580251    9.89960523460026
C         9.94109754584815   13.95882432796608    9.88992626904487
H        10.21818839123453   14.05833252083381   10.92839788515928
C         9.67062331256434   15.08445527314816    9.13582527893468
H         9.73331589765990   16.07337842790669    9.57517611382092
C        10.70063354160392   16.96637522538231    6.33806313382735
C        11.58917356967993   16.00953027863675    5.85187649348981
H        11.28746788153926   14.97228641681274    5.79938909047408
C        12.85112573813273   16.39565552063555    5.44226672848223
H        13.54146804468432   15.65723824805049    5.06398056056217
C        13.23141629055390   17.72747478427859    5.51848202596367
H        14.21877576053986   18.02312880890199    5.19901424131683
C        12.35062637482074   18.67859034669564    6.00710482147037
H        12.64996109853974   19.71378893853785    6.06932665552165
C        11.08554440506292   18.30014312004161    6.41964689169303
H        10.38998433715434   19.03416004821849    6.80931764461590
C         8.17031669195016   15.97646591091463    5.36916059354330
C         6.90427549244222   15.41557054654240    5.53889986014627
H         6.51690330593651   15.27245295331672    6.54083364532157
C         6.16638900171223   15.03459119456769    4.43575690169657
H         5.19170789267980   14.58929719968586    4.56585619387080
C         6.67981246326336   15.22691893411788    3.16116503730226
H         6.10276731659409   14.92911240842417    2.29938557951274
C         7.92763700786896   15.80332211006216    2.99133432705865
H         8.32151309145932   15.95751460926902    1.99831976787280
C         8.67667362145057   16.18481003480628    4.09163605206947
H         9.64967373073813   16.63703526009934    3.95984534778471
C         6.32255751489445   21.16939855655068    8.26479188639096
C         6.93126615875584   21.38584807028709    7.03322026250080
H         7.66265902864839   20.67527139845606    6.66647465386511
C         6.59740473962930   22.50135515111063    6.28640427322741
H         7.06997518402342   22.67087529471661    5.33087070762299
C         5.65458921963193   23.39655798690438    6.76512369492275
H         5.39277158857199   24.26502629651538    6.18068802858851
C         5.04229667017504   23.17898697593513    7.99057393319510
H         4.30606089055470   23.87717451907909    8.35857561466176
C         5.37083017112179   22.06751414862294    8.74318514363560
H         4.89438046390748   21.88905253594346    9.69761532691108
C         7.70633949342782   20.34506278820217   10.65755242798046
C         8.09875485979006   19.40613917019975   11.61180170170547
H         7.81254467088633   18.36864842089672   11.48393424170427
C         8.83016163336184   19.80667399193778   12.71229670080758
H         9.12499129908623   19.08325366499003   13.45723239060236
C         9.18602520196480   21.13998164286447   12.85673893186844
H         9.75817560591456   21.45291952765510   13.71641715379386
C         8.81334152110498   22.06928104398654   11.89980774956862
H         9.09683250823077   23.10463686185091   12.01237491811406
C         8.07649235932614   21.67766277155898   10.79478846708472
H         7.78787554425427   22.40221817351517   10.04631315317182
C         5.20488676386197   19.14504655330776    9.91875689471421
C         4.41624636223828   18.34658358009284    9.09367117719390
H         4.78151676302488   18.07658719601084    8.10946231921643
C         3.18015157394862   17.91185726672859    9.53142913346433
H         2.56637716301981   17.29654164143730    8.89128873410283
C         2.73181150617975   18.26582072506081   10.79494866392661
H         1.76740717163719   17.92451835097610   11.13810831290445
C         3.51873636711231   19.05371951013007   11.61930422456263
H         3.16778570035343   19.32595173412664   12.60311221280652
C         4.75606870535224   19.49765153566366   11.18698979177045
H         5.37185194438188   20.11002405631809   11.83137869168561
P         9.03779231881505   16.48953656053952    6.87206409973721
P         6.78414623995509   19.71232400055141    9.23471397993786
Au        7.91600864685207   18.10231833618769    8.05584062354724

