59
CSD_code = WAGGUG | q = 0 | S = 0 | Stoichiometry = C23H32MoO3 | MND = 9
Mo        4.07072695240819    0.97505421603615    3.63817635407162
C         2.70947291534138    1.87475039490908    2.60091171497902
O         1.91200554023491    2.38815821044766    1.95465384945468
C         2.61204912638199   -0.27536220964683    3.39425658171596
O         1.70595919502921   -0.97576611493552    3.27865718812969
C         3.18065491113272    0.77066213135249    5.34377471161271
O         2.66686959950077    0.63649070447515    6.36080290625933
C         3.81191563965708    3.04633416138630    4.57000818321441
C         5.68692016403865   -0.58409170027463    3.12375652343074
C         5.58219514530735    0.33756273477272    2.02904866454738
C         5.95480612156207    1.62553334587814    2.52517337544491
C         6.32423257014754    1.48898376401484    3.89996245866831
C         6.14502442886068    0.12864482287189    4.26774571910084
C         7.06816232184646    2.50738645597548    4.71300618657793
C         6.60812728322974   -0.49479432842549    5.55295933428292
C         5.55879813666955   -2.07980789655284    3.09012792616760
C         6.21231651122068    2.85787298562492    1.70122947961615
C         5.38697112448599    0.04636929573445    0.55889301804900
C         6.54454442507647   -0.81650697863121   -0.00600018695640
C         6.08156224618014   -1.63418551320090   -1.21581074846182
C         5.00350375729150   -0.95792670356917   -2.10466550945761
C         4.00492896764240   -1.42550526925405   -1.01914530858560
C         3.98502029693588   -0.50431623905411    0.20098434496740
C         7.76025131541994    0.05573547432604   -0.31348199396464
C         5.07403431596425    0.51116369010063   -2.51077337565162
C         4.82954242619393   -1.73750907411012   -3.41348413861055
C         4.97348603013042   -2.57688582635247   -0.71839934932597
H         6.76496034157036    3.52324727513111    4.46791787705644
H         6.91309029021946    2.35412407966477    5.77970355331692
H         8.13883732123154    2.41700695378240    4.51191194902924
H         6.53827428868215    0.20836524320231    6.38126775027783
H         6.01681414173097   -1.37333369094228    5.80578415716309
H         7.65199870521164   -0.80500737057908    5.45819963080768
H         5.16993790034521   -2.45618494806984    4.03639160214550
H         4.88699105975955   -2.40724726234198    2.30160578330377
H         6.53744851799621   -2.53841105100912    2.92626135118878
H         5.46225554189863    2.98846444176299    0.92206618880295
H         6.20007208801787    3.75009481328411    2.32504710703353
H         7.19463223782756    2.79791709505203    1.22652581810100
H         8.58060363561159   -0.55760441798081   -0.68089965147738
H         7.52825251215383    0.80311889813785   -1.06727137829194
H         8.09410413019766    0.56221550334033    0.59026440860119
H         4.28925872563526    0.71550591522618   -3.23771132429366
H         4.93789236465859    1.20558006544206   -1.69253152273407
H         6.03123496808777    0.71619820682053   -2.98699137040847
H         5.61706650930080   -1.45888381124281   -4.11153706142247
H         4.87143191037796   -2.81267014986318   -3.27586732392619
H         3.87055019284242   -1.49318753298509   -3.86691450104963
H         6.85654126140565   -1.53878159742760    0.75673384659555
H         5.47876295393514    1.01739786804371    0.06896601343034
H         3.31163305231625    0.33894462264475    0.02485261485878
H         3.56959327977662   -1.07067063461668    1.03938786104604
H         2.99076569528869   -1.67277867480090   -1.33620968995129
H         6.93592572728203   -2.07538950918029   -1.73239211136069
H         5.04179700451208   -2.89967532700754    0.31689459747428
H         4.82025517768773   -3.45329719468690   -1.34120171248900
H         4.21400685707996    3.78206568033545    3.87501459015629
H         2.79483306991087    3.35441339218170    4.80324882897351
H         4.38159706955433    3.10681858478200    5.49531420876917

