56
CSD_code = WAGHUI | q = 0 | S = 0 | Stoichiometry = C27H25ClN2Pd | MND = 4
Pd       -0.04447007827555    5.46149313820894    7.58673764842387
Cl        0.00618463999089    7.80641567445427    7.19281858766718
N         1.49570559959360    5.35395602708432    6.40180569685567
N        -1.74515242800025    5.60408362764482    8.50290387057557
C        -0.16569956638771    3.41331500876295    7.81669536274462
C         2.71189397257256    4.94812094442628    6.46828968341702
C         3.17919373604573    4.25496203532944    7.67554899136918
C         2.69649030940174    4.63661168927823    8.92832107399144
C         3.09173083896819    3.94993058718963   10.06160238118149
C         3.96766076288348    2.88132050477122    9.95925279195283
C         4.45851692868442    2.50415659483497    8.71902178606492
C         4.07170616356640    3.18675892539087    7.58175615369740
C         3.65765648306010    5.14146238163493    5.35705797398260
C         4.99933865048953    5.42487881135521    5.61334248401509
C         5.88000219458284    5.63326974984959    4.56914122462653
C         5.44004029731111    5.55011755220817    3.25775712003842
C         4.11070911420845    5.26361924971082    2.99321631795122
C         3.22266251385887    5.06717962293865    4.03352612858678
C        -2.07859028112333    5.64849405004742    9.74105765457596
C        -1.02564027555050    5.62534470957733   10.76827844536668
C         0.12585678745200    6.39613431158399   10.59513970428339
C         1.10360686995558    6.40190357388753   11.57578015597841
C         0.95614848146849    5.62755276408066   12.71562402747276
C        -0.18033377366971    4.85227279674944   12.88419214422557
C        -1.17295139386695    4.85781105957732   11.92267719666160
C        -3.47906243763493    5.73209429830512   10.17900939069502
C        -3.81905719482623    6.44166089507584   11.33159171086251
C        -5.13856249446317    6.53560512320028   11.72972577880647
C        -6.13608921534838    5.91553553453916   10.99442638497234
C        -5.80815784477553    5.20177347000778    9.85321827958390
C        -4.49176612365089    5.11403171967762    9.44354981642698
H        -1.09123224977363    3.02976240348458    7.37299416209152
H         0.66952269795575    2.88334131503320    7.35327476263806
H        -0.17264037388874    3.16183789161160    8.88215781008066
H         2.03772675637415    5.50366599982178    9.00468173896304
H         2.71255322121345    4.24928311848985   11.02713599614941
H         4.27100646841825    2.34311917934453   10.84501634519986
H         5.14140466688476    1.67137400615219    8.63790119947673
H         4.43943598626567    2.87907380401077    6.61343573156313
H         5.33984167804192    5.50013966663466    6.63546078165409
H         6.91461566103112    5.86135349195075    4.77816203683105
H         6.13137737269324    5.70768552513765    2.44357744920886
H         3.76500890015761    5.19319172618914    1.97258307860974
H         2.19119012174157    4.82429043905180    3.81880770501142
H         0.21387989282256    7.04738555385832    9.72710621272363
H         1.98227098714202    7.01785082869609   11.45208842596665
H         1.72268412298358    5.63267861293784   13.47689479962889
H        -0.29592710718899    4.24785839637299   13.77168668687432
H        -2.06105783668265    4.25673993191007   12.05456417052177
H        -3.04373134987881    6.93443939764423   11.89902664747016
H        -5.39130615956369    7.09407841212237   12.61865231483569
H        -7.16603819285759    5.98630807441285   11.31024556901131
H        -6.58169579300201    4.71113937953285    9.28127435094643
H        -4.24307858090798    4.53550314852719    8.56457527382991
H         1.26459664840499    5.86024785340399    5.53844397171826
H        -2.52957877488979    5.68958541227537    7.84578681192679

