65
CSD_code = WAGKUK | q = 0 | S = 0 | Stoichiometry = C15H44P3RhSi2 | MND = 6
Rh        1.98255680724869    1.22320492999876    4.11332158501740
P         1.39547837603883    2.83726936546026    5.77844337582601
P         1.54777284582779    2.68206557765528    2.24565558274674
P        -0.03652822229253    0.06994504452316    4.10922167007429
Si        3.04335842351732   -0.10060001774208    5.81620186131437
Si        2.99909756565088   -0.37810367211424    2.64282032220314
C         2.77317224494826    3.98144397387752    6.18959446635554
C         0.94323489563424    2.33118242736828    7.49242136317069
C         0.07757673745516    4.12336713397822    5.56527684188760
C         2.90920999656152    3.89828036645074    2.02421460581171
C         1.50231922869185    2.03939223618222    0.52164401265019
C         0.13891683978437    3.87511537835886    2.07389935344673
C        -1.21074816736893    0.36331073472492    2.71644743825042
C        -1.25776799565370    0.34385623406583    5.46524462346216
C        -0.07436987122751   -1.76453358297660    4.10203916718517
C         1.99381841925199   -1.15158755960912    7.08234103987317
C         4.30912366784646    0.75798500802148    7.01551876159668
C         4.18549187311793   -1.41690999212685    4.98543192450819
C         3.58523779693192   -1.89915219337995    3.67854859317533
C         2.06522207940728   -1.23215194353376    1.15541570316432
C         4.64107868679117    0.19984091310873    1.78520509252076
H         3.35951704965295    1.85795530311388    4.10535879223463
H         3.61209931135719    3.39764232676756    6.55768581998024
H         3.08968250380159    4.50309326465447    5.28823018339525
H         2.46389702857105    4.70707347107828    6.94211202596306
H         1.01120906057072    3.19057454613065    8.15937721853638
H        -0.07423219538439    1.94850543609976    7.50923645241954
H         1.61515889770477    1.55089665714652    7.83425978615224
H        -0.15991771355287    4.57583701887426    6.52732837606261
H         0.44078764112209    4.89834837834997    4.89364916542587
H        -0.82455533975861    3.68746248370638    5.14053922369503
H         3.84331739926315    3.35407927299688    1.90434968625500
H         2.73097131055200    4.52864157754280    1.15296233121076
H         2.98750737738949    4.52081305626109    2.91370557542938
H         0.60505942599416    1.44567806952274    0.36616940195785
H         1.50869098388446    2.86889072225569   -0.18529168357730
H         2.36768777663290    1.40752695862499    0.35264002791881
H         0.22397992824423    4.65746008038209    2.82292614554888
H         0.16291679240673    4.33020816738689    1.08448664631705
H        -0.81431028685015    3.36948452666205    2.20714129030444
H        -1.55865578973599    1.39435050059165    2.74688301922512
H        -0.70707890201376    0.19353063143631    1.76843518331771
H        -2.06772391149304   -0.30587251174146    2.79356930354323
H        -1.47749862049350    1.40667989403865    5.55447228463865
H        -2.18076227631315   -0.19829840840847    5.25873841342968
H        -0.83945948998762   -0.00994086155067    6.40424477344146
H        -1.10145142590456   -2.12820796760307    4.13979095711949
H         0.41177835012039   -2.12752270052753    3.20083836070925
H         0.47547697455944   -2.13041780163725    4.96460014410039
H         0.99366093960846   -0.76500674070387    7.24713836546631
H         1.89863301343528   -2.17641435512426    6.73839612505215
H         2.49628259790603   -1.17964288278611    8.04443121180263
H         4.87597228243831   -0.00599086257679    7.53869456344815
H         5.01692217915506    1.37064921893010    6.46759329263031
H         3.83502309467995    1.38238693647144    7.76589427367250
H         5.15007206444824   -0.95534941265488    4.77816436339707
H         4.37529191675440   -2.25333426405190    5.66005478818606
H         2.74608351317642   -2.56057557461708    3.89394884257869
H         4.31015435366994   -2.48808858433822    3.11415396098515
H         1.00809915454058   -0.99353137212772    1.11828261613150
H         2.49832722203812   -0.94215815660582    0.20413250895470
H         2.15433636207524   -2.31091154434364    1.23537972494043
H         5.05346909257242   -0.60876623330956    1.18926111640727
H         4.50124164301501    1.05483185370922    1.13037251668332
H         5.38068648199882    0.47650951968574    2.52825544066844

