71
CSD_code = WAGLIZ | q = 0 | S = 0 | Stoichiometry = C28H38IrOP3 | MND = 6
Ir       -0.51223096254965    0.46621837056170    4.39599360026517
P         0.99989048267547    2.19560080593037    4.63096159442199
P        -1.60684472979855    0.68489149733267    6.61404778436514
P        -1.70985819550089    1.38460259300752    2.67561365667440
C         2.57495248339009    1.70422930806301    5.43942083398790
C         0.63953126250456    3.71935276925055    5.60275474563583
C         1.67040790363667    2.89296924968903    3.07725835397597
C         2.07832287765556    1.95688674689039    2.13028274162099
C         2.58781978171517    2.35504855536394    0.91094882920669
C         2.68612007256291    3.70617684857715    0.61458602020576
C         2.27178718013583    4.64329152182983    1.54348649831807
C         1.76430720381584    4.24255909724100    2.76850080934256
C        -0.64186253818390    0.89929730244849    8.16534660675373
C        -2.80596574432690    2.07011634684870    6.88859215148669
C        -2.71454295679340   -0.69611483197042    7.05176315973158
C        -3.84260582085174   -0.89034817475422    6.25818338272193
C        -4.69842187718077   -1.94817154967848    6.49384044642406
C        -4.42773381114066   -2.84198386732200    7.51794724619381
C        -3.29327503633045   -2.67368895491931    8.29311567245003
C        -2.43733386063611   -1.61050259906354    8.06107256200730
C        -1.36909790596707    0.71160117769270    0.99675616387628
C        -3.54635331124401    1.18455030541547    2.66383392473543
C        -1.62840229158040    3.18634559329864    2.37964142339340
C        -1.06464177779722    3.77753429568369    1.25701319424479
C        -1.02844560219633    5.15656739730652    1.13883573159920
C        -1.54670893980395    5.96028984632593    2.13863738443202
C        -2.09760097603165    5.37908746823935    3.27045901329229
C        -2.13039454239858    4.00362852254393    3.38964879695435
C        -1.29155585145059   -1.48737738996467    3.99489207755601
C         0.10919460220316   -1.46625619055145    3.72067767778713
C         1.04746033409558   -1.24287403863680    4.75336073212397
C         0.79578418589754   -1.39751677445829    6.14756246934536
O         1.59019991152891   -1.13659260999017    7.05260046873588
H         3.16903651926291    2.57767907630553    5.70702516475164
H         2.34995292131420    1.11480291873018    6.32833117935008
H         3.14285422039282    1.07973382528285    4.75290999288625
H         1.51544151970027    4.36441058240102    5.66192503250389
H        -0.19296913490311    4.25697163301596    5.15294743800483
H         0.35788673797941    3.41210714662919    6.60837482260059
H         1.97787320539211    0.90549482694155    2.36769472122245
H         2.90572776010912    1.61807851574588    0.18674623235733
H         3.08011771823517    4.02449709795811   -0.33960935178356
H         2.34083309616933    5.69709517601076    1.31422602004226
H         1.43519440355124    4.99268489805071    3.47042870682371
H        -1.28469348185448    0.82092757170368    9.04183829331886
H         0.15463781823727    0.15848330556459    8.21224724250730
H        -0.18000592773790    1.88574491689990    8.14780696062294
H        -3.25686997520474    1.99472155985005    7.87767299562821
H        -2.27647373013895    3.01723704261952    6.80224905711769
H        -3.58900884518563    2.03896034832938    6.13549744247607
H        -4.03157386274601   -0.21048537164054    5.43898173325986
H        -5.57336128077712   -2.08443737247903    5.87394361074659
H        -5.09228218769294   -3.67343133542539    7.70242753361754
H        -3.06884548775459   -3.37818396502391    9.08133679802990
H        -1.54675111596785   -1.50658118001901    8.66236378568910
H        -1.99503950602706    1.18342101303924    0.24045325559170
H        -0.31749134347898    0.85392519761585    0.75769450036918
H        -1.57518120564847   -0.35683444613143    1.02300043974417
H        -3.97667751439524    1.61594432386046    1.76062136614010
H        -3.77466973330520    0.12158003678993    2.71039888114553
H        -3.97436866831292    1.67277130616348    3.53572967093992
H        -0.64265980223786    3.17041690130347    0.47169439693049
H        -0.58987803859188    5.60511402029169    0.25922639757207
H        -1.51791722892499    7.03564238987568    2.04107248242305
H        -2.49768462896347    6.00263786526833    4.05795912801188
H        -2.54154148115937    3.53752961870796    4.27504728323240
H        -1.93246225783021   -1.74462775110006    3.15315162662649
H        -1.63404095385286   -1.97504078243750    4.90307950650412
H         0.47208140438691   -1.61140020736404    2.70630426031438
H         2.09308894799368   -1.13164198744595    4.48231415851620
H        -0.18738043008349   -1.84176735411438    6.41495148028474

