53
CSD_code = WAGMUP | q = 1 | S = 0 | Stoichiometry = C22H24ClIrN5(1+) | MND = 8
C         3.43852884568683    4.55482579941094    1.43602260542511
C         4.64771695145668    4.18318505215036    0.72703839258145
C         5.30372165920547    3.16206355491343    1.48782075309462
C         4.46891317091857    2.83190894998564    2.60042440427082
C         3.33792651761959    3.72566700344419    2.59040027159822
C         2.59970078552143    5.73446495657722    1.08381159182152
H         1.69920258803617    5.77770341830061    1.68873360922366
H         2.31605098146561    5.70550688517946    0.03361778037945
H         3.17567876521945    6.64572023332181    1.24891823600859
C         5.20288560337592    4.95279712140107   -0.42380954748241
H         5.53917368758776    5.93063216940169   -0.07744058854089
H         4.43915396005568    5.11137305338758   -1.18224225013466
H         6.04692434322580    4.44445504419169   -0.88156201298744
C         6.67046808108116    2.61591736248897    1.25613281293853
H         7.35437791731335    3.07494491044264    1.97153229516823
H         7.03260761809752    2.84303487691720    0.25729993607459
H         6.70750890326557    1.53907868210625    1.41108809330531
C         4.83204160669769    1.92741055821031    3.72845411865490
H         5.47734842112356    1.11743884727371    3.39753699003682
H         3.94511290792326    1.50362037791649    4.19306190449101
H         5.36961913315682    2.49458505643738    4.48993219266890
C         2.38298254261534    3.86656219758599    3.72525189672239
H         2.91205306701426    4.30619584877791    4.57217812059753
H         1.99097104581371    2.90281245180968    4.04407670438657
H         1.54846674170671    4.51207104176124    3.47001979040088
C        -1.54522746974585    2.77850705942059    3.89912237750695
H        -2.07311373758492    2.52392370318355    4.80762175263444
C        -1.66343605525863    4.03848158758277    3.32334140883054
H        -2.29463669448539    4.78798691667858    3.77271364671450
C        -0.96268627779382    4.29578024359065    2.15537707315069
H        -1.04382221583843    5.25473954374797    1.66496240832035
C        -0.16446267282249    3.29871796202056    1.61597564582550
H         0.37783081748422    3.44319083160030    0.69498841476207
C        -0.11951380239381    2.07014838178770    2.27396478757705
C         0.62044606577878    0.94832584178283    1.70648485157162
C         0.16051858666044   -0.39188273495464    1.64157802847668
H        -0.74680978069858   -0.75687620186444    2.07499249657600
C         1.09103627590338   -1.07321796993114    0.91521724418850
H         1.15159876965001   -2.09300410478241    0.59412878979298
C         3.16039098340834   -0.33121994709062   -0.22183240453675
C         4.39361264048824   -1.57208827830963   -1.64347447091982
H         4.53441531241034   -2.53036554423797   -2.12150375589759
C         5.22889003832449   -0.48422252383013   -1.88020478918213
H         6.05277265326924   -0.54224830478462   -2.57027855177731
C         4.95566352905490    0.68323983576572   -1.19045667098624
H         5.55357615549388    1.57322575166909   -1.32056748180070
N        -0.80314245581888    1.81710877484364    3.38774929773155
N         1.78569802005658    1.04541533257086    1.08354243463132
N         2.06567175254908   -0.18160996569185    0.58886835600450
N         3.93248614452152    0.76804348819850   -0.33785183647636
N         3.36366082117710   -1.48453357097982   -0.82095200269295
Cl        2.14139606896211    2.92523160423132   -1.28038424164350
Ir        3.30805068206516    2.45612683438588    0.71767909091701

