59
CSD_code = WAGMOG | q = 0 | S = 0 | Stoichiometry = C30H20MnO7P | MND = 6
Mn        6.07323226440190   10.06402955178408    6.97800539223349
C         8.03839003447031    6.81022403965177    7.12111464114220
C         9.54304658475985    5.68256066903425    5.63722614699062
C        10.29207414619642    7.58557859714094    6.88516544731679
C         4.39749014280425    6.60877326432422    9.39233135663605
C         3.78595317682515    6.01311187864825   11.62514836393940
C         4.18598204592516    4.30494230337878    9.98983072069133
C         7.15353608127943    9.33527933233685   10.38395457597959
C         6.94433055285602   11.52835044127331   11.30108365775626
C         8.89369700463880   10.22103466298051   11.77833728268821
C         5.10303665931272   10.71119229114287    9.87625428992668
C         3.37376486802925   10.94287098253609    8.24516224138619
C         1.72877149646864   12.65599559434694    7.82431607899502
C         1.08479573958388   10.35122686626532    7.78120062014932
C         7.15660810913690    9.51477242751130    5.66956165659811
C         5.66183786087506   11.67556695285572    6.33053211134939
O         6.77273699429867    6.87580729614712    7.66246793563083
O         6.67745177616620    8.23440168162412    9.69348539258082
O         8.40784041064887   11.32096403818251    8.22649838375513
O         3.86485550610170    8.77922036309018    5.54229652732728
P         6.06552211152934    8.21944592104307    8.21279327868562
C         8.28851115035405    5.79498106567933    6.20677255782130
C        10.54537444220258    6.57885468203594    5.97089252734005
C         9.04056042541388    7.70368742836770    7.46591356615588
C         4.06038788263075    6.98776844538457   10.68169230175820
C         3.84972673421103    4.67317242330734   11.28153339043433
C         4.46380547567702    5.27163357476867    9.03874061136840
C         6.41495950396408   10.51297045212080   10.50223711873532
C         8.17002016390744   11.39441228990098   11.92060937942701
C         8.38132191883875    9.18956538825236   11.01502880516396
C         4.77261719841507   10.58253547106956    8.58726907464869
C         3.02605517315446   12.28798956690426    8.12748660133483
C         0.75409099614828   11.68860005841492    7.64583597122249
C         2.38279835556077    9.97859774679682    8.07982110242671
C         7.46572022816295   10.81155840041246    7.81549505910528
C         4.69458065632760    9.30988030877807    6.11775340344198
O         4.61811984833890    7.59676269398883    8.42968479464223
O         7.83962689355990    9.17366770247981    4.81505502785729
O         5.38745381479493   12.71487880666227    5.93509498263916
H         7.49372037512951    5.11180275280083    5.95032509694378
H         9.73499286867948    4.89565386221659    4.92381135709381
H        11.52100981733743    6.49294735071385    5.51778679494335
H        11.06703154598737    8.28862693099956    7.15070101346719
H         8.84449144560485    8.48225617991605    8.19046859910474
H         4.01368973189189    8.03813582063589   10.92847836866344
H         3.52405604452003    6.30410822878553   12.63114662574880
H         3.63765184796971    3.91563712939354   12.02075014139906
H         4.23629677715131    3.26116229363668    9.71899626602867
H         4.72875622072021    5.00432532800699    8.02775919633904
H         6.37683412327898   12.44064894828312   11.41300716678918
H         8.56254664458081   12.20325077656604   12.51782383461228
H         9.85193865542737   10.10669469104309   12.26097681789509
H         8.91500425540217    8.25748118965839   10.90222163563628
H         4.34540698035563   11.07792385676136   10.56992054909523
H         3.78480742119543   13.04489269213637    8.27161141945910
H         1.47715016424557   13.70246952429951    7.73004751405161
H        -0.25917962243264   11.97609366708335    7.40660981472521
H         0.32749724236044    9.59089664299874    7.65490489392208
H         2.62991303261774    8.93262647344140    8.18897051680853

