33
CSD_code = WAGNOJ | q = 0 | S = 0 | Stoichiometry = C10H12N8O2Pt | MND = 6
Pt        1.01379797968610    4.49125413777896    4.01108172850982
O         1.02838027382013    2.48352108183024    4.43065876701202
H         1.93229932473285    2.22139609166144    4.62418032594390
O         0.99929020091676    6.50116744996314    3.60242591402659
H         0.09603896866280    6.81878031692042    3.68306447416499
N         3.04450667834188    4.45683775636858    4.06442579120848
N         3.70630649268997    4.64842909613293    3.11472465930792
N         4.44718065538836    4.79757807006692    2.27007020233592
N        -1.01603015301392    4.54744797324978    4.06394174716385
N        -1.68519716673177    3.97224943496086    3.29043555408718
N        -2.43351969836125    3.48123190909408    2.59518596001714
N         1.00497055482080    4.08107239804919    2.02181665762272
C         0.63158170779841    2.87788148513554    1.58535958063126
H         0.35819703553885    2.15549381304940    2.34689762568922
C         0.61367185887364    2.56233848833594    0.23924649296550
H         0.30094593254094    1.57901332856528   -0.07211546465140
C         0.99821642930191    3.52280529119572   -0.68305153542925
H         0.99567473658714    3.30459681272009   -1.74004850567463
C         1.38612668843322    4.76962850417585   -0.21828096240453
H         1.69655524823620    5.54891218998265   -0.89505878195993
C         1.37506885378516    5.01277764986557    1.14281471549982
H         1.65176420801285    5.97717464498574    1.55505957193158
N         1.02382773728396    4.89242677620719    5.95783782642107
C         0.36660899937987    4.10314210581432    6.80502509543377
H        -0.14187847703031    3.25078958348613    6.37140835763277
C         0.35449946073436    4.34853512290926    8.16677874950864
H        -0.18673906045304    3.68777272782243    8.82470745714088
C         1.04240387538174    5.44671787075158    8.65999514572792
H         1.04999245511573    5.66335678938651    9.71734137447980
C         1.72036456646569    6.26045821829166    7.76517675874662
H         2.26842741316932    7.12540317523831    8.10268702204863
C         1.68960683040671    5.95000828341686    6.41707212674198
H         2.18985938948411    6.56130142258466    5.67603556811833

