94
CSD_code = WAGNEX | q = 0 | S = 0 | Stoichiometry = C47H35MnO9P2 | MND = 6
Mn       19.55987916428639    3.59620949337754    0.46411638220595
P        17.47809794348118    3.40779376532525    1.04998509281164
O        22.09490970149983    1.85445736635482    1.03847057300896
O        16.33750224038907    4.03509308327072    0.05953761682952
O        16.90513839451343    4.03923188376416    2.39377178887242
C        19.41249668151680    5.33749902399018    0.74404970473506
O        19.45430741687686    0.84204245914048   -0.48034369734383
O        19.52855718336620    4.62412590796635   -2.25587386902364
C        19.69109680976033    2.51347614091231    3.39229259576052
C        20.19442356817421    0.08007442136528    6.13149151320678
C        19.73626817947739    2.23025189841553    7.09119233840827
C        19.79047549445595    1.97350216688277    4.69862929358010
C        22.08065437614626    2.85746978310128   -3.51151162953980
C        23.05426606310832    5.04575983918427   -3.58844078172651
C        22.70130091664500    3.96561247707090   -1.48029295975577
C        25.61814811488651    0.88481933143672    1.33834331400821
C        24.58449187435916    0.78738423101666    3.49959675476794
C        23.31566124502934    1.47838790546234    1.59328897590183
C        21.75252968411677    6.38452378734781    4.85891687488097
C        21.72317874200010    7.51501780421510    2.74397602048535
C        22.07978329367736    5.15016078179402    2.83472631303651
C        16.33355509379982    5.20171281600286   -3.38878206187622
C        16.95032042985044    2.88465472008198   -3.36255011119709
C        16.46914993283611    4.02277871787497   -1.31157407085462
C        14.98459977950886    0.89699631491539    4.13863804934780
C        13.58766765711026    1.05452932644219    2.19545693319594
C        15.91964610233812    1.55572802358449    2.03949058921789
C        18.14755094704077    7.17304923953305    3.81258206289529
C        16.13270158577855    7.61053982226787    2.58828833015980
C        17.01475218690149    5.39025230830351    2.69276023892664
P        21.68651323693568    3.39615457429354    0.89919994115566
O        22.81876935125557    4.00915494752438   -0.11018950922698
O        22.35360088042524    3.93807346036403    2.24139536701353
O        17.03759011923172    1.89193422062721    1.27981701974200
C        19.51537940687707    1.91428355034523   -0.08574010130772
C        19.53677037774511    4.17182309495855   -1.19484658508923
O        19.20381209880605    6.47043296451382    0.69268609864843
C        19.62856444395015    2.96304732678464    2.26676482224831
C        20.07687095134401    0.61558031354706    4.86413866152486
C        20.02617833309631    0.88406907798931    7.24816840066872
C        19.61870783807825    2.77666183772780    5.82793673385149
C        22.17419336203795    2.85884861619780   -2.13053974024720
C        22.51656394039768    3.94895583985275   -4.24147703808835
C        23.14633874169513    5.06099437381820   -2.20907772073214
C        24.42642337174058    1.31640478694859    0.78085362725657
C        25.69948558201554    0.62099819829642    2.69480051456831
C        23.38918731582410    1.21854163676097    2.95295401014355
C        21.97628332889726    5.17921265634253    4.21899966246584
C        21.62631635044545    7.55269324530410    4.12419554073407
C        21.95412185014120    6.31452947593293    2.09499859658527
C        16.21724802398511    5.19509124411408   -2.01102037912006
C        16.70394982221404    4.05101177348748   -4.06514436343588
C        16.83256143665042    2.86457107479957   -1.98360322892182
C        16.07991074288911    1.28798858026682    3.38969217760351
C        13.73910690026138    0.77952131112575    3.54370026088656
C        14.67749719131599    1.44644917201119    1.43633783102119
C        18.07091154854648    5.83371440879635    3.47339943075491
C        17.18275406756372    8.06153929575217    3.36997348544226
C        16.04259986442439    6.27232836597902    2.24794033317132
H        20.20361758906937   -0.00644802375128    3.98892990184896
H        20.41849138946577   -0.97043465382781    6.25084526604625
H        20.11936679989972    0.46221579074562    8.23827012451998
H        19.60156176714165    2.85821591346295    7.96065018708350
H        19.39155732773918    3.82691131266128    5.70684367865150
H        21.84775012425342    2.00663373141036   -1.55007308408597
H        21.66112313940266    1.99896385543748   -4.01405826246442
H        22.43652161286714    3.94647179260203   -5.31785726714774
H        23.39594081721611    5.89940235720803   -4.15429578052434
H        23.55487011939202    5.91127069547526   -1.68449867964833
H        24.35079532246524    1.52503109438235   -0.27599969787819
H        26.48532646482915    0.75769864580674    0.70773568952544
H        26.63175048819744    0.28687937121156    3.12487061813349
H        24.64379272518194    0.58379707021190    4.55836220438564
H        22.50854859006114    1.35637485491238    3.56126579478308
H        22.07389384218671    4.25821767486633    4.77256587653974
H        21.67394672798853    6.40946505825975    5.93575660481288
H        21.45787373617823    8.49330245272109    4.62760463708153
H        21.61974645145878    8.42102948549268    2.16667148259086
H        22.05227339630499    6.26906186672716    1.01941018737337
H        15.94895663364634    6.08667405975285   -1.46483168732027
H        16.14599396469227    6.11408572352427   -3.93456309669843
H        16.80523686357204    4.06570980603081   -5.13967769216045
H        17.24254220596475    1.98589395488952   -3.88454137048748
H        17.01360073278737    1.96033456741543   -1.41822171803634
H        17.05899801611596    1.39259651190999    3.83146779224218
H        15.10611002860809    0.68733440217222    5.19075861774502
H        12.88580335023679    0.47619843267745    4.13158238350343
H        12.61754264958004    0.96771367361516    1.72938673147813
H        14.57388415679672    1.66681390624079    0.38424679934960
H        18.82611992160104    5.12915048836994    3.78885092188398
H        18.97267349201119    7.51934147663869    4.41553444225748
H        17.25111285792568    9.10698693267871    3.63066445500899
H        15.38103698090137    8.30189757197740    2.23761988730018
H        15.23271843253225    5.89956388121838    1.63957802814836

