65
CSD_code = WAGSEC | q = 0 | S = 0 | Stoichiometry = C30H32AuPS | MND = 2
Au        6.74434267655809    0.76685742781640    3.29451209463538
S         7.61339957409725    1.14506056963742    5.40426527077564
P         6.40644611482495    0.45473929500087    1.07057130412996
C         8.03523757918482    0.39218433992165    0.27379168126819
C         8.37064907649797   -0.51881110640357   -0.72182446342645
C         9.64985543707682   -0.51589605097342   -1.24959326459020
C        10.59296322953406    0.38913806546842   -0.79072581436428
C        10.25872966649995    1.30009722823327    0.19909923408504
C         8.98494062256770    1.30183676266777    0.73316643474331
C         5.52663605462113    1.74521305492940    0.14787814906473
C         4.52192541348024    2.43773994238742    0.81697595190819
C         3.80570207418686    3.42073131585316    0.15913385716367
C         4.09741970090552    3.71958074660177   -1.16221809437487
C         5.10561438528191    3.03802286056090   -1.82634433689452
C         5.82378552373128    2.05106180904638   -1.17666902501623
C         5.60626726513247   -1.08659604454916    0.55944419843328
C         6.13576510530330   -2.25975393022164    1.09697684798849
C         5.56007582279519   -3.47823004239652    0.79778664037312
C         4.44373997457461   -3.53112310569102   -0.02388460502352
C         3.90404575695959   -2.36518910541469   -0.54146741849702
C         4.47817049097660   -1.13986572953591   -0.25095075062940
C         9.00517538275622    2.09445042570593    4.83142523231982
C        10.07896689267898    1.45842314418521    4.19532797152750
C        11.14111046954625    2.23106998825582    3.75329274854725
C        11.17259482843695    3.60474618441422    3.94397283943134
C        10.10553586474239    4.20920776258924    4.58849139533993
C         9.01954352421047    3.47495593158681    5.03836709307570
C        10.03300163163033   -0.03164589001843    3.99679706101140
C        11.28589533153821   -0.67073291424564    3.41775405882197
C        12.32044156618866    4.42766957966534    3.42687072782555
C        12.01554870231252    4.97340183110445    2.03071944826866
C         7.89929642830527    4.16556393190898    5.76025192778809
C         8.09255276796015    4.06363150111943    7.27307926524179
H         7.63649537748296   -1.23007566190953   -1.07526536299476
H         9.91186605992113   -1.22659473809304   -2.01951635846832
H        11.59158716833498    0.38009876602078   -1.20166091709084
H        10.99165201451741    2.00238424517634    0.56590146876944
H         8.72440045893881    1.99952911570615    1.51961936035590
H         4.31458902033573    2.19789403944683    1.85250391768821
H         3.02438724751597    3.95689289212540    0.67676365862920
H         3.54090142084146    4.48940547789692   -1.67554901882265
H         5.33287751396716    3.27739690977672   -2.85475851198829
H         6.61247608015656    1.51759085733412   -1.68955806655466
H         7.00030496763999   -2.19978606670269    1.74677701216307
H         5.97466370728922   -4.38670547211812    1.20846704675692
H         3.99082461016745   -4.48333110150144   -0.25542889147473
H         3.03022369778321   -2.40873230795067   -1.17452100838572
H         4.05604657314472   -0.22941407498152   -0.65318785665280
H        11.97706926854592    1.75883688353746    3.25954678082591
H        10.11762485600002    5.27886900834897    4.75117464468624
H         9.18042694531103   -0.26101780004854    3.33725684249361
H         9.79895353109750   -0.49041347123730    4.96211797362493
H        13.22574162030797    3.81780090352221    3.38576154699371
H        12.50587299749467    5.26501880529667    4.10304003945238
H         6.95023731250726    3.69360753160516    5.49566400216980
H         7.86282466426079    5.21667531463049    5.46297854947284
H        11.15558896236443   -1.75045911867827    3.36958044899315
H        11.47916551083578   -0.30993066170705    2.40861079166669
H        12.15097537339143   -0.46057084302860    4.04258559779439
H        12.84027579932083    5.58332149549344    1.66753453023016
H        11.85564957152761    4.15678296584675    1.32950934174592
H        11.11468748854360    5.58293738724274    2.05191073498862
H         7.28887008495989    4.57836057504447    7.79547536113251
H         8.08903317349589    3.01847904487997    7.57084015972788
H         9.04283198693179    4.50630931982082    7.56545252115742

