93
CSD_code = WAGVOQ | q = 1 | S = 0 | Stoichiometry = C42H48P2Rh(1+) | MND = 6
Rh        5.22445433396420    8.94701710096206    0.88096670773854
P         6.70029071371840    8.70884431707165    2.59964190414421
P         3.76283349618112    9.42581844414215    2.56080237192731
C         7.96246824464562    7.39628469812361    2.66405947745996
C         9.30906090130514    7.74217835692009    2.59011676360614
C        10.27752711473955    6.75672629845860    2.54681217539555
C         9.90344785118690    5.42782649857480    2.54340182034494
C         8.56228508478563    5.05828977586079    2.58030595554688
C         8.22487524690087    3.59450291414904    2.48889843723615
C         6.75830016245729    3.28263785714312    2.76593630881231
C         5.87711837376720    4.30239425556719    2.05649831419706
C         6.12852826070293    5.66968683986693    2.67932478885069
C         7.58128659556650    6.04550370943120    2.64294312039404
C         7.63573789064187   10.25626560044263    2.84012821343691
C         8.38138352660459   10.49257846918606    3.99348727441730
C         9.04436976587488   11.69465761827270    4.15626639613158
C         8.97433575782789   12.67006702925727    3.17325955141190
C         8.24351034822844   12.43824489896044    2.02029955799541
C         7.57710182032453   11.23692005862959    1.85549842713817
C         5.78188406316224    8.65034989100252    4.21286345479663
C         4.69640920499594    9.71725896177790    4.13950122058224
C         2.49069765323137   10.72590337743499    2.45296724344770
C         1.14652548060992   10.36328795439867    2.44518867287308
C         0.16880727192095   11.32500822538437    2.27194250230282
C         0.53100468371965   12.64205946292751    2.07189589771437
C         1.86917875370549   13.02280754016355    2.04038276731615
C         2.19240873821734   14.46018860694951    1.73331175055601
C         3.65793296006598   14.82138552633111    1.94939213260928
C         4.54422411331481   13.71639888899062    1.38963449560095
C         4.30912065905468   12.45149078477209    2.20571506973804
C         2.85956134403127   12.06255528223122    2.23489259354725
C         2.83937329546362    7.92202962049243    3.02357620037264
C         2.11786992662526    7.83774484837886    4.21283423930854
C         1.46183578394532    6.66688128431794    4.54442236229240
C         1.51310443243620    5.57233832973884    3.69490350014874
C         2.21819567322057    5.65272908400087    2.50585329396580
C         2.87915460092378    6.82178622346833    2.17331747045672
C         6.77025177465862    8.84471284789171   -0.71621948230596
C         6.41141732964306    9.72276608272191   -1.89284098576474
C         5.23312946026252   10.67327324890687   -1.60197411832802
C         4.19215430068099   10.10841714159434   -0.66796226986607
C         3.67332811274449    8.83347162916043   -0.71186901080496
C         4.03018962813614    7.80471571602172   -1.75978262490186
C         5.20784527581683    6.90115716211468   -1.34415465054628
C         6.25179241812246    7.58729032961976   -0.49912684986908
H         9.60376026343008    8.78033655964938    2.56297793564923
H        11.32072192541731    7.02873214995198    2.50370462812257
H        10.65796307063998    4.65654907825734    2.49798689491750
H         8.47888468691522    3.26201187319926    1.47676726634956
H         8.86394741059124    3.03522227373860    3.17525852352385
H         6.52894334428077    2.27219205555233    2.42600890076018
H         6.56404113550907    3.32556676078225    3.83953564429033
H         6.12260857678275    4.32096697218427    0.99224505956504
H         4.82383251708641    4.03872662660104    2.16180701849033
H         5.54127581838637    6.44551210827664    2.16845604411446
H         5.79475193013002    5.63296478754034    3.72129214047813
H         8.46060773930774    9.72996769149933    4.75566131777185
H         9.62111124774422   11.87098153769313    5.05154166069077
H         9.49411914918874   13.60639047826274    3.30558858792489
H         8.19792776350122   13.19206887172967    1.24852501332757
H         7.00525869730813   11.04885733205319    0.95240587682559
H         5.32686467382162    7.66605538281608    4.33681329770615
H         6.46412014606356    8.82302008087861    5.04851034177989
H         5.15248628707774   10.70860867564133    4.11253793664911
H         4.02312525660096    9.67093586798144    4.99842390512619
H         0.86078888851584    9.32992839391483    2.57144555691847
H        -0.87227928909510   11.04174359561740    2.28077419054526
H        -0.23065278154325   13.39298621528134    1.92335417670044
H         1.92799019138951   14.63866576418946    0.68556522558876
H         1.55299736915241   15.10868160295672    2.33571735938277
H         3.87509118023989   15.77286490152657    1.46289374798409
H         3.86011681434578   14.93819106812677    3.01600149533339
H         4.29310519515786   13.54160840219676    0.34098500505271
H         5.59564841493524   14.00145325122381    1.44831116278459
H         4.90059020172357   11.61485549625196    1.80853204222399
H         4.64818774208370   12.64149472098271    3.22914436970833
H         2.05165137709724    8.69310595573227    4.87067889045672
H         0.90344298410906    6.60880130192637    5.46639769664359
H         0.99820029626884    4.66141118562797    3.95806182088974
H         2.24878302838939    4.80527171774414    1.83741875326856
H         3.43287155010867    6.89022405431812    1.24238686234078
H         7.73251003064877    9.06387670217726   -0.25290702211008
H         7.28106576502056   10.32566615180645   -2.15925302093998
H         6.18648812785893    9.08831994950329   -2.75044229903342
H         5.61942025263494   11.59787084545209   -1.16340749528433
H         4.74291825076187   10.95051959892542   -2.54103534230334
H         3.59595403001728   10.87122280394081   -0.16605294247688
H         2.71274282269155    8.67856892731318   -0.22024805082853
H         3.15956763353318    7.17257079480786   -1.94244323410231
H         4.25524748359061    8.31751423572324   -2.69519229756174
H         4.82153741114580    6.04609226857720   -0.78198675241994
H         5.69532548785671    6.49707370399713   -2.23737846589009
H         6.84872547345611    6.89929643406260    0.10051813166193

