40
CSD_code = WAGWEH | q = 0 | S = 0 | Stoichiometry = C16H17CrNO5 | MND = 9
Cr       14.79576446626457    2.85956555745553    8.76566691915800
O        15.86618229803716    5.69308728282019    7.36264416298097
O        15.99341932648414    6.50624157094037   10.37234894381844
O        12.06058190510028    2.32513453810342    9.81110217812816
O        13.67610430555884    0.91697863665059    6.81239813514989
O        13.19172100271546    4.62923257365396    6.97966421393643
N        17.95855160646168    6.06748525241792    8.14315195790263
C        16.66870578473751    4.12028216813368    8.88604383296153
C        16.02206638689936    4.14849426373758   10.15816982727457
C        15.74482002708275    2.91435731864549   10.79935660186991
C        16.16329686535727    1.71087423385991   10.23124914874580
C        16.74004314003734    1.70933641488028    8.95333749302143
C        17.04841130205004    2.91719146585907    8.28521167972138
C        16.79776051117229    5.39453825726567    8.09414794238809
C        15.66888715450313    5.40759535462491   10.77877405303556
C        17.77078716727937    2.90132538783194    6.96932587948320
C        19.04855179498620    5.72146169101661    9.02794288276439
C        19.19344295071487    6.69522411610658   10.19782405058642
C        18.09254613810199    7.26007987281127    7.32611966701832
C        18.84816042520152    6.97455162761462    6.03166132597494
C        13.12911879371489    2.55806677080423    9.44643459034990
C        14.14585143979882    1.66134765119816    7.55827141541814
C        13.89173774114419    4.03438754558865    7.65968073178617
H        15.32106058985933    2.92452655058338   11.79824621399159
H        16.02781071984195    0.77880064179793   10.76569978601703
H        17.07713659660677    0.77178038426081    8.52453272712325
H        15.07938988683459    5.30131714503589   11.71163077949653
H        18.82677893402219    3.14371162184117    7.10810593727707
H        17.70290400846617    1.91968880255959    6.50511301698014
H        17.34273402173027    3.63606468025353    6.29007130175951
H        19.97717574844075    5.69865665651524    8.44641934540827
H        18.86884286800072    4.71637379011321    9.41827410383441
H        19.85783121636542    6.27449450265498   10.94818252618819
H        18.22010520279353    6.87961640242080   10.64436427247133
H        19.60703648845446    7.64559223005816    9.87202423265554
H        18.60212593784716    8.03135583980459    7.90506111451876
H        17.08152795913563    7.60092618453001    7.09446353766209
H        19.85384029825889    6.61120829907512    6.23393234896021
H        18.92413269973384    7.88503597282742    5.44411024138155
H        18.31705429020697    6.22901074364631    5.44544088080000

