126
CSD_code = WAGXUX | q = 0 | S = 0 | Stoichiometry = C54H66N3OReSi | MND = 4
Re        0.00000591260834    0.00009722709829    0.02101392721908
Si       -0.00010078077958    0.00010721803147    3.57116899816160
O        -0.00014289769654    0.00024548322306    1.97722941573165
N         1.63722914807909    0.07729690383611   -0.68469247314950
C         1.33345448424369   -1.20487410184342    4.17596958518869
C         1.48585883113769   -2.44877878104922    3.57281906098144
C         2.45999869190281   -3.33565258044855    3.99394346207091
C         3.30696828357675   -2.98700286046523    5.03268157360140
C         3.16948686596839   -1.75254146383213    5.64534530176950
C         2.19014307193077   -0.87304724483717    5.21908213431932
C         2.78255399287416   -0.02040469217982   -1.36940535654971
C         2.94301798334660    0.63791556720792   -2.61582087572560
C         4.13890764818189    0.49053275765506   -3.29283666084656
C         5.17218961551163   -0.26843116327172   -2.76867386983968
C         5.02463749133424   -0.89170656849693   -1.54122398495232
C         3.84437938667761   -0.79062794010586   -0.82972521882479
C         1.82508500808819    1.51795217677519   -3.11804405122777
C         1.78850196383771    1.67192847243484   -4.63581548521091
C         1.94023975402270    2.89116808531468   -2.44596030779594
C         3.65736516694099   -1.41379949519328    0.53275929971255
C         4.46910535831787   -2.68839447648458    0.74404616305672
C         3.99808778669020   -0.37688019595308    1.60896222642393
H         0.82970299514071   -2.72545891944155    2.75838724276748
H         2.55775205280728   -4.30051903483962    3.51524443543005
H         4.07207179389562   -3.67486956377868    5.36352705399615
H         3.82852769988380   -1.47551726662700    6.45626794331406
H         2.08878191509838    0.09087713450067    5.69952582278391
H         4.27927829687076    0.98041601684839   -4.24326012927452
H         6.09942314290172   -0.36548152347616   -3.31351968972120
H         5.84462430401664   -1.46663959940575   -1.14079608133391
H         0.87646182535784    1.07122026103068   -2.79384084059071
H         0.87734853831671    2.19289811634415   -4.92024646242370
H         2.63215474450148    2.25605594864098   -4.99541709436322
H         1.79743099912977    0.70038715956631   -5.12305509975172
H         1.88852917354733    2.77941118370827   -1.36582468718487
H         2.88530339124619    3.36340727623475   -2.70718534386601
H         1.12272288834407    3.53366634845247   -2.76372985866692
H         2.59362710703992   -1.66809076435931    0.63753783484463
H         4.30243109233067   -3.38956796859791   -0.07079108924436
H         5.53270785884638   -2.47204989987860    0.81162566681019
H         4.16575867552731   -3.15884679306931    1.67693037556430
H         3.37263532411883    0.50573444372690    1.48999428130263
H         3.82924989882222   -0.78931000438160    2.60164040658112
H         5.04036753430831   -0.07350436505649    1.52671808532653
N        -0.88545947307480    1.37930482789013   -0.68483540564226
N        -0.75165783592479   -1.45643391537271   -0.68468111161047
C         0.37653536153038    1.75740591193525    4.17627745051739
C        -1.71030886685945   -0.55241824365846    4.17618107636115
C        -1.37348525875745    2.41998994900175   -1.36963395504541
C        -1.40893730018382   -2.39948132464579   -1.36936511341893
C         1.37739395979540    2.51163784778909    3.57317325389586
C        -0.33912441021327    2.33304516084969    5.21963714484540
C        -2.86390674857599   -0.06253497519254    3.57322715834005
C        -1.85103117312800   -1.46028978471489    5.21930390097434
C        -2.02379586401627    2.22971424744800   -2.61605929802202
C        -1.23738969807177    3.72470276361952   -0.83002693760454
C        -0.91911040135363   -2.86756950344718   -2.61582021558644
C        -2.60682252651672   -2.93399652305663   -0.82960683851298
C         1.65825003535461    3.79864072218153    3.99459321230712
H         1.94514076397136    2.08196309200995    2.75867311012056
C        -0.06726642399713    3.62086254970288    5.64618741442339
H        -1.12313261173048    1.76309697700153    5.69998548783235
C        -4.11892578950941   -0.46284924706415    3.99455940835892
H        -2.77565096805477    0.64424428317613    2.75895974391597
C        -3.10225587009321   -1.86882547970699    5.64574415158117
H        -0.96544919749736   -1.85457574126996    5.69942607224980
C        -2.49408016912828    3.33903241784122   -3.29316260062548
C        -2.22695544032985    0.82149966039771   -3.11817922049703
C        -1.73996950021801    4.79732772143889   -1.54160608803130
C        -0.60424535802230    3.87440146766266    0.53247149722769
C        -1.64471443935695   -3.82955036605956   -3.29280940603086
C         0.40195085810921   -2.33938971419892   -3.11810852802338
C        -3.28451046674756   -3.90558978742017   -1.54108458085042
C        -3.05289999130288   -2.46053097039763    0.53293794944743
C         0.93288118916484    4.35745173918414    5.03357321627231
H         2.44484984368589    4.36595503823751    3.51596099415339
H        -0.63674014993708    4.05285508314212    6.45719428689755
C        -4.24021831302484   -1.37073021089203    5.03328576950025
H        -5.00352143989652   -0.06501948476552    3.51613609199617
H        -3.19165808767217   -2.57822484024440    6.45655189870189
C        -2.35346849938669    4.61339499049647   -2.76906903094000
H        -2.98847677687448    3.21559507809990   -4.24359870907120
C        -2.34207409639417    0.71272381241745   -4.63593749241654
C        -3.47372924545346    0.23464228456929   -2.44599043749115
H        -1.36573933521090    0.22337126804469   -2.79397061608289
H        -1.65208236366607    5.79494837104222   -1.14123468102587
C         0.09363217258034    5.21473002620482    0.74375463783643
C        -1.67261638126857    3.65096578389524    1.60865327052730
H         0.14788937673113    3.08036895794646    0.63728085217985
C        -2.81859173763000   -4.34495742896973   -2.76858265981242
H        -1.29070167211253   -4.19603047442110   -4.24326176983135
C         0.55353499159462   -2.38476229621399   -4.63588360242481
C         1.53367528585753   -3.12563721345294   -2.44602296559747
H         0.48934989342420   -1.29447338331666   -2.79395380253318
H        -4.19236806127071   -4.32829113203161   -1.14060121647381
C        -4.56258714497223   -2.52619950311887    0.74433320164685
C        -2.32520379143518   -3.27415861577839    1.60902977118442
H        -2.74122382858050   -1.41217582135942    0.63776695157467
H         1.14588187016984    5.36395984722528    5.36458429854062
H        -5.21839705249293   -1.68947933722308    5.36430004057823
H        -2.73301826848247    5.46489262290387   -3.31398268538200
H        -2.33767527890201   -0.33686355358694   -4.92029029142274
H        -3.26979201469235    1.15124893345904   -4.99552497949217
H        -1.50518588346723    1.20619753129012   -5.12325489423861
H        -3.35103410150644    0.24580218962910   -1.36586039930194
H        -4.35525296088500    0.81694419301457   -2.70720566171814
H        -3.62139362974490   -0.79461837005292   -2.76368938328582
H         0.78424782175887    5.42097896313526   -0.07104327484236
H        -0.62557665752138    6.02762898139686    0.81125437479588
H         0.65266712435268    5.18731855615296    1.67667813954815
H        -2.12423804461736    2.66799694364056    1.48964317891672
H        -1.23103905715402    3.71093785664755    2.60134112104297
H        -2.45649859878891    4.40190818006720    1.52642133688638
H        -3.36627513637096   -5.09943722453713   -3.31341298276885
H         1.46025713430046   -1.85614868464193   -4.92036787199164
H         0.63760653478032   -3.40746780679975   -4.99543071003694
H        -0.29233723857277   -1.90678102522049   -5.12313062456158
H         1.46278508416283   -3.02493328291080   -1.36588839314944
H         1.47016454210282   -4.18022040188460   -2.70720121159624
H         2.49882045975604   -2.73885726921515   -2.76384453931835
H        -5.08653810471848   -2.03117673179500   -0.07041379708178
H        -4.90704976299561   -3.55547603026108    0.81183954697483
H        -4.81824897496997   -2.02835331741266    1.67728799914993
H        -1.24811686821092   -3.17393468890853    1.48990384665347
H        -2.59778070996116   -2.92170680570696    2.60175057735792
H        -2.58374327052302   -4.32845683443777    1.52680891165844

