26
CSD_code = WAGZEJ | q = 0 | S = 0 | Stoichiometry = C11H10O4W | MND = 10
W         2.26454805090331    0.36432060295958    1.97432564128813
C         0.30337189804944   -0.18821874367602    3.09913794613117
C         1.35278954842537   -0.43892673287316    4.00818370857090
C         2.17460038850027   -1.45184271768834    3.46800000483897
C         1.63507527916825   -1.84251219145554    2.22043167040502
C         0.46828978868546   -1.05647189174875    1.98006202109778
C         1.53560970111025    1.96710295755574    1.07733471805200
O         1.05725112956482    2.82244246945279    0.48352568129606
C         2.71065472905034    0.30866351395759    0.06083562754837
O         2.88834720334840    0.28981882313624   -1.07688310348849
C         4.53344346566972    0.22610657394445    2.21329886304863
C         4.14208696451627    1.59812324397469    2.25795829997661
C         3.25633680238965    1.93258727617126    3.31508985138698
C         4.44292456054685    2.63897399587321    1.22444670799748
O         4.09958248886003    3.78439993164221    1.34918474029538
O         5.15962584972553    2.25597601912719    0.15296057426179
H        -0.55532044736609    0.44406992236315    3.28244594517969
H         1.43216908739891   -0.02415252014597    5.00319234886220
H         2.97952825715680   -1.95347752127157    3.98810997017083
H         1.95028947947944   -2.69481384293959    1.63297596122168
H        -0.27083966679279   -1.24025035218409    1.20846742117527
H         5.21937557577720   -0.11249970232831    1.43831785012763
H         4.76467692659285   -0.22903228619330    3.17561470518841
H         2.92991778330860    2.96655222724452    3.36122194775024
H         3.44499069593840    1.48055327509646    4.28656732691015
H         5.36427445999394    1.31110767000682    0.14499357070717

