121
CSD_code = WAHBAI | q = 0 | S = 0 | Stoichiometry = C50H60FeN6O4 | MND = 6
Fe        1.50743203522121   10.03023169912945    4.60854794046965
C         0.83110402706372   11.88334327026770    4.54820271098108
C         1.57949531523264   12.12249139827180    6.83775719118351
C         0.62543085025114   11.02699951579072    7.38552077114934
C         0.30083357938921    9.92767043737203    6.36862637142181
C         2.91690154072082   11.50299463383483    6.60303225794226
C         1.16326460096256   14.15574366149355    5.49643047410023
C         2.62941983322686   14.59410739429406    5.59022305915520
C         0.28777507769364   14.91985651146284    6.49037404048729
C         4.36228757693768    9.96580127843696    5.58941966361651
C         5.38741865347876   10.96949266270393    5.06173172210261
C         4.79613720588471    9.33416337249201    6.91182821901271
C         1.24582414651195   10.46588682667842    8.65202659378022
C         0.81206476823635    9.24419758236732   10.59049956646808
C         0.54709185340054    8.57906368641904    6.85280419641818
C        -0.29225956464278    6.35033812889248    6.75527160204544
C         0.04744603707126    9.60477259497846    3.66523774526313
C         1.94969500974700    8.25906815704142    4.62040420214665
C         2.36626206684429   10.45096753474167    3.09367250664126
C        -0.59626180567209   13.32985787204799    3.20162923425303
C        -1.87769640132400   13.42360147694318    3.78025423686678
C        -2.74994016096440   14.40339412027112    3.34400521127900
C        -2.39427321025123   15.28675633319331    2.33865200461684
C        -1.14962909721034   15.17256907343675    1.74452260574307
C        -0.25232732694696   14.20262833319677    2.15218920058033
C        -2.29058431523340   12.43646571214643    4.83160038199088
C         1.09969972516381   14.08013971084501    1.51374256935726
C        -2.06972569685272    9.19195529907255    2.35064429541469
C        -3.01055959911681    8.24247992841888    2.77251906401097
C        -4.18864833170223    8.12231371453875    2.05180731661908
C        -4.43036320920255    8.91855190331538    0.94629553259322
C        -3.49120151076311    9.85179838341602    0.54596895641940
C        -2.29728924734175   10.00883201045590    1.23400065924297
C        -2.75207131663716    7.36733778665411    3.96070249342151
C        -1.28733187234627   11.01647503965853    0.78366094998363
C         2.15106663744709    5.74956262144666    4.43817437257160
C         2.90208673982495    5.04436931166465    5.38829956537985
C         2.91083447826661    3.66098323295476    5.31572714052781
C         2.19681805635711    2.99659809282666    4.33290077229153
C         1.45608093938297    3.70967148994389    3.40567929361296
C         1.41789892441718    5.09431160133568    3.43959244848087
C         3.65862367582555    5.79197066526630    6.43890654273671
C         0.62516550711659    5.88641775465750    2.44626268400625
C         3.25097370531659   10.99459979362990    0.79873928437650
C         4.06528260207064   12.08937240079357    0.48905826107352
C         4.41533350295936   12.29055521279928   -0.83726961339075
C         3.97429650849657   11.43044377147672   -1.82683521462303
C         3.17768778481266   10.34443576518816   -1.50213391985179
C         2.80507209829717   10.10490049337452   -0.19109405473112
C         4.56106072365804   13.00299020056422    1.56784592788273
C         1.97081696408087    8.92440540190733    0.19710248318445
N         1.02790021021679   12.71438311326976    5.63575941716651
N         3.04293066776081   10.58618767134212    5.73491262270388
N         0.21822353913974   12.26568716855129    3.49787692153977
N        -0.91552111449716    9.33232843187890    3.05545218052670
N         2.10767774730372    7.10262846026902    4.50380536453622
N         2.86724859564070   10.77646305756885    2.08136356743375
O         2.40169638036920   10.59852644414766    8.96972164594676
O         0.32165500386881    9.90324869777774    9.43195822638425
O         1.44929252376918    8.20260943465514    7.58397744754383
O        -0.39242338281513    7.70856450352201    6.37247429588860
H         1.66918933988514   12.89741047408479    7.60253347788696
H        -0.31258775619356   11.51530846691127    7.67194746023974
H        -0.74507263418941    9.99893757193847    6.06690056275520
H         3.75084366998508   11.85842709845854    7.19950450798810
H         0.80347665895842   14.39711838369088    4.49354804595365
H         4.24578013360075    9.17354083227167    4.84315677399483
H        -3.72984709324441   14.47557705978783    3.79715915979287
H        -3.08647928245433   16.04956430443388    2.01345024828438
H        -0.86961087771170   15.84686307712272    0.94606530579656
H        -4.92507661265151    7.39729761226730    2.36665727704158
H        -5.35523972701068    8.81416335729633    0.39888010758613
H        -3.68369243329260   10.47762729821924   -0.31297885070625
H         3.48178909667630    3.09823912162907    6.03959520290789
H         2.21434610714574    1.91793101738669    4.29144049534616
H         0.89639432175314    3.18548749883335    2.64470743746334
H         5.03989288486912   13.13346438175200   -1.09422347498919
H         4.25330511305338   11.60411780642517   -2.85509170914720
H         2.84135552560279    9.67255627095587   -2.27829704301318
H         3.01229745379501   14.49563914077710    6.60383868727456
H         3.24282353764693   13.98668650606677    4.92658583898415
H         2.72202986333140   15.63575744552738    5.29165229947829
H        -0.75035677520420   14.61819435584383    6.38101311292082
H         0.59741432577218   14.74858359969240    7.51931093449594
H         0.35582765828997   15.98579907110111    6.28765555521673
H         5.03308277797469   11.39930105660915    4.12759237976280
H         5.55810995641311   11.77276570700403    5.77464327800017
H         6.33383635583329   10.46717197048604    4.87814943054373
H         5.08962862688544   10.08884524254887    7.63615880466997
H         3.96497493062541    8.77380492042344    7.33282925747800
H         5.63717575733661    8.66433327346207    6.75025308474123
H         1.45130842874730    8.41246818598403   10.28837400935549
H         1.39190519449946    9.93616389832903   11.20512484570734
H        -0.05991244934017    8.88508214939284   11.13107419720098
H         0.57031699652904    6.21211743436951    7.41033582693186
H        -1.20502300458406    6.07332483246792    7.28577238321797
H        -0.18464964886454    5.73159105110535    5.86285573498939
H        -2.24591294452437   11.42463534205705    4.42805607244999
H        -1.61790233178025   12.47291046158804    5.68758455540677
H        -3.30519602449153   12.63558680006960    5.17022412059400
H         1.85788912100564   14.57792221150371    2.12161206066163
H         1.37222894096939   13.03004929229017    1.43188277258990
H         1.10670368355517   14.53203360955484    0.52431156954705
H        -2.04543038679910    7.82301210228606    4.65049712768504
H        -3.68162219623873    7.16265278536613    4.48733173016599
H        -2.33696390770214    6.41201241456088    3.63624626277156
H        -0.57959613112545   11.24735608140071    1.57592250798494
H        -0.73862458181626   10.63827990121062   -0.07998222663232
H        -1.78391455274775   11.93749268505032    0.48581736461617
H         4.49011129946211    6.33532030549071    5.98924742527481
H         3.01731729813110    6.52753239697077    6.92505978309733
H         4.05307079234866    5.11179087259959    7.18910252758845
H         0.13643761354115    6.73226442464256    2.92719817743966
H         1.28212537587157    6.28727944907984    1.67387498540851
H        -0.12305665096883    5.26128657624565    1.96497449319671
H         3.87409956159487   13.01229622219681    2.41153760386168
H         5.53670977312034   12.66649011878790    1.92302098691138
H         4.67288202444786   14.01588572902298    1.18861102271045
H         2.58047815721498    8.20957924703225    0.75199906239687
H         1.15361619959912    9.22541743549521    0.85153923726348
H         1.56689319098449    8.43049022370461   -0.68290707910793

