80
CSD_code = WAHBEN | q = 1 | S = 0 | Stoichiometry = C43H34P2Rh(1+) | MND = 6
Rh        9.01599147885734    4.60121280901731   14.25544188256793
P        10.35362233185925    3.73619905200154   12.62410227514886
P         7.65075515106691    5.38731830724252   12.60760658669306
C         7.61319802896680    4.54770327229845   15.94426499611784
C         8.19176450789364    5.78951295867804   15.90247070127126
C         8.69353750134781    3.88711812079961   16.78558279288658
C         9.06652178435698    4.68171187187492   17.98580841237600
C         9.40719493413420    5.42492042747896   16.74291171119264
C         9.88702349852377    3.48594129516101   15.93032282453554
C        10.46508654296267    4.72810581399938   15.90250544650753
C        12.02594688138873    3.27888968216085   13.18456697115430
C        12.84218420160211    4.29209055115452   13.69021622721534
C        14.10367891477951    3.99998614834263   14.17263191592808
C        14.55670606211133    2.68972135934535   14.17297864246543
C        13.74279910918230    1.67707489936394   13.69464648625282
C        12.48003653527675    1.96530407171080   13.20455974923347
C         9.62100477070170    2.17966320608976   12.04778538478785
C        10.11706569479111    1.50554629943618   10.93588583022717
C         9.51774785700479    0.32975080272209   10.52468175801955
C         8.42537233849705   -0.17355373453385   11.21446723587831
C         7.93138188514950    0.49344980890849   12.32398812047231
C         8.53007166818138    1.66727505558054   12.74196363770147
C         6.01303604102129    5.96628104133205   13.16113532703701
C         5.16795107720396    5.04935910926631   13.78801287726588
C         3.93460900296589    5.44670408381841   14.26810661318412
C         3.53852161074200    6.76940236898823   14.14528033880341
C         4.38183984904213    7.68944854842599   13.54611049415215
C         5.61603454498957    7.29489698454995   13.05785051138271
C         8.42073546259172    6.85985582739433   11.87915186605002
C         9.52604070130237    7.40789667585285   12.52145452754876
C        10.15149163529809    8.52309168678333   11.99608765126215
C         9.66965459258584    9.09641665136540   10.83026034544770
C         8.56222494853959    8.55892720301575   10.19235688708174
C         7.93580479837872    7.44138483387274   10.71165978547252
C         7.30777622458611    4.32290151836387   11.16332448071735
C         8.29959663472976    4.07900577337116   10.20372822191437
C         8.02782943134405    3.19120219440268    9.16527411762534
C         6.81874981505494    2.52883675458079    9.07806701887377
C         5.83360844135246    2.78638284959200   10.01430314530136
C         6.07893093468746    3.67855752192372   11.04112195777174
C        10.62936722633450    4.65745991475965   11.07123838450331
C         9.59759961331301    4.78472693146517   10.13203910873930
C         9.82094323723599    5.54215487100889    8.98466498092724
C        11.02170380093466    6.19051952572041    8.76982295320385
C        12.04425291479583    6.05123992167996    9.69090868345584
C        11.84721086033857    5.28673166588685   10.82549377237034
H         6.59737752749192    4.20140714157475   15.81196691529674
H         7.80422337696511    6.78074695621885   15.69820926799239
H         8.25047599634208    5.07633112774797   18.57608462909360
H         9.89897765335209    4.31230629405848   18.56950019389332
H        10.27054531502780    2.48673728127518   15.76047312145542
H        11.47621408155612    5.06753635113385   15.72329618682611
H        12.47929951064284    5.31350015004872   13.69968037610415
H        14.73308715222685    4.79083261847227   14.55265950130817
H        15.54008043416275    2.45968570820547   14.55249656269646
H        14.09017312436223    0.65520538750781   13.70368801163079
H        11.85040330019720    1.16718965045953   12.83904206970566
H        10.96449744315186    1.90968575119724   10.39848025179261
H         9.90101682156474   -0.19607867880943    9.66344493617206
H         7.95880511400565   -1.08952602418139   10.88631897823699
H         7.08260535629225    0.09627701996363   12.85969512656775
H         8.15270452758323    2.20794437642376   13.61311585521281
H         5.48444079108418    4.01868528514923   13.89494122424119
H         3.28300923612923    4.72806735495539   14.74234489464839
H         2.57735790032728    7.08187648222003   14.52275663279234
H         4.08004927736782    8.72204090638080   13.45862200843244
H         6.26802037983002    8.02292882056346   12.59785983477314
H         9.89159635423467    6.94178881426246   13.43957035313351
H        11.01142118717978    8.94753900197969   12.49167472250339
H        10.15724645246051    9.96620095793515   10.41785467056454
H         8.18802239229401    9.01261166325302    9.28725283242971
H         7.07524911307498    7.01171443152474   10.21664307024531
H         8.79184295287016    3.01613113563907    8.42193054891452
H         6.64097875254121    1.83266599688280    8.27345895423517
H         4.87291621949904    2.30011953223969    9.94524054940232
H         5.28896217076084    3.89134137518171   11.74353420802404
H         9.02648542638567    5.62615477780800    8.25752439994992
H        11.16335790610432    6.78434842598543    7.88045075781430
H        12.99738140509771    6.52929236504820    9.52620581669454
H        12.66557026982574    5.16258502545732   11.51673889851284

