74
CSD_code = WAHBUE | q = 0 | S = 0 | Stoichiometry = C36H31N2OPPdS2 | MND = 4
Pd        4.75477459189609    4.56755395094437   12.55117366917349
P         3.56257681969096    5.34236241810025   10.80456127293028
S         6.45646225189598    6.07665596208208   12.36097592836989
S         8.78837733892579    6.31379328704359   14.14020723895440
O         3.25522346339292    3.20897038788227   12.82751163826141
N         5.74247648319682    3.90589993311283   14.16393752140799
N         6.91132670828508    4.51549596207363   14.50126494331716
C         2.00638829169359    1.49609714251869   13.79056090607040
C         0.80562274322285    2.04928865535816   13.35057006880458
H         0.79385860284498    3.08052807628095   13.03010565786057
C        -0.35023754610186    1.29359821605258   13.33029011182654
H        -1.27538808034723    1.73800953045013   12.99309444123293
C        -0.32115529046540   -0.02936842366197   13.73926517745034
H        -1.22330790664654   -0.62330367591172   13.72223986203279
C         0.87139101681966   -0.59157633900984   14.16457130366392
H         0.89945935773193   -1.62681734383118   14.47277448706831
C         2.02966968936947    0.16329756032091   14.19132550347883
H         2.95816555868702   -0.29223603907205   14.50169623835924
C         3.22275122375968    2.35112200709149   13.77425912274156
C         4.17665191588078    2.17966479105869   14.77023024337936
H         3.97692425804439    1.42086102074256   15.51024840252170
C         5.35941360589049    2.91441068417391   14.94927267605956
C         6.24890419055783    2.56568898116249   16.11090660951859
H         7.24077586893964    2.30420573076715   15.74497404171536
H         5.84181360947243    1.73770887523842   16.68263210496478
H         6.36219039028227    3.43459806312808   16.75780375652172
C        10.59037580626082    5.91672192827727   16.15425172301255
C        11.80048396972941    5.38809960070466   15.72155289561343
H        11.80164443215083    4.56950704065948   15.01638442395797
C        12.99707089177527    5.90329373059866   16.18577032090334
H        13.93167590546739    5.48288116301955   15.84431059811608
C        12.99788936385077    6.95644455670180   17.08449364732165
H        13.93234103046075    7.35882658645697   17.44689584861752
C        11.79661519455692    7.49400853387500   17.51474522289225
H        11.79205581403419    8.31828685725413   18.21286691670369
C        10.60019834426015    6.97851485041224   17.05095112587146
H         9.66345597771429    7.40210795135664   17.38323013479176
C         9.30023584795547    5.37243911658162   15.64210641034218
H         8.49063345478352    5.48275831842392   16.36166271732435
H         9.38346357751769    4.33098176391790   15.33631071518445
C         7.30011067483477    5.48585414191595   13.75876049450148
C         4.27936957281195    5.27232863147883    9.13696285502414
C         3.54306134436060    5.55875451603247    7.99121619093532
H         2.49746233802814    5.82332386329706    8.07502279732218
C         4.15071618750148    5.48389585619956    6.75129975715135
H         3.58380786669285    5.70986147950839    5.85980883286552
C         5.48351003900239    5.11522147398332    6.64937629359168
H         5.95211891212935    5.06033751862678    5.67785256350611
C         6.21130007384594    4.80516396633495    7.78687168927256
H         7.24500950428390    4.50461282145756    7.70279399504074
C         5.60938317071398    4.87875723943485    9.03019037481890
H         6.15835763609547    4.62872376444003    9.93714898356675
C         3.23155698740239    7.09459879222649   11.17701213392047
C         3.10515728888017    8.11062435975773   10.23955219806971
H         3.20409314156402    7.89138538826020    9.18649243969828
C         2.87285197772030    9.40879488033224   10.66269847823316
H         2.78103100662121   10.20107767161831    9.93426843407552
C         2.76561465507028    9.69548411503418   12.01306596821313
H         2.58817384032169   10.71057488319372   12.33598199726383
C         2.89964542958096    8.68496709773180   12.95387679339130
H         2.82853772495471    8.91411415269421   14.00689019530230
C         3.13801528110761    7.38899697460089   12.53875747249296
H         3.26820451671704    6.57803179398900   13.27051446163761
C         1.91471884554736    4.62450958874628   10.54101868446883
C         1.87573605462704    3.30764505979214   10.08893116753600
H         2.80750192805214    2.79456910839248    9.88614632067890
C         0.66431875520907    2.66681134828537    9.92180385237112
H         0.63567164678126    1.64310524043040    9.57903737231642
C        -0.51631195241540    3.33655323460514   10.20618259073479
H        -1.46430467303445    2.83534855084027   10.07735542835810
C        -0.48092839262395    4.64320419177937   10.66289150302325
H        -1.40121383799770    5.16165832692333   10.89061278916096
C         0.73176118593906    5.28923556120345   10.83718147705661
H         0.75981250226493    6.30649299448792   11.20353778600220

