76
CSD_code = WAHCAL | q = 0 | S = 0 | Stoichiometry = C36H30N3O3PPdS2 | MND = 4
C         3.04201595565295    5.93922267330938    3.23714616200097
H         3.69852947596570    5.90675965764710    2.38036253050731
C         1.60281902537988    4.79164521029759    4.77849704281637
H         1.15542110814489    3.88041303007824    5.14645339934408
C         2.79882501550905    7.13048090723625    3.89235725879194
H         3.26769579070788    8.03913905608808    3.54388782767500
C         1.95832821541786    7.15721725740794    4.99288174923476
H         1.76818030398826    8.08695061632215    5.50881300396289
C         1.36628002295612    5.98546635236880    5.43520914716560
H         0.71983279290166    6.00198645108785    6.30069903940993
C         6.53665801757387    4.77906864577059    1.83100525440007
C         6.44460720596470    5.93802112003110    1.07148190391543
H         6.41443002334365    5.87670241749168   -0.00792481261232
C         6.55545315978248    4.86010440688411    3.22129622327318
H         6.60332846890064    3.94558846230184    3.79950520838146
C         6.39001664299597    7.16973580878623    1.70285793002772
H         6.32105481549917    8.07145115896876    1.11159376865289
C         6.41643215720132    7.24720704181745    3.08506205174777
H         6.36846503644155    8.20964181504602    3.57263997335975
C         6.49608240657475    6.09015395295381    3.84549315861378
H         6.50337958914515    6.15173372499079    4.92359856458405
Pd        4.66592680741763    1.89131621755084    1.35858938069484
P         6.55110426101847    3.10767994248850    1.11877773800114
S         5.36987890215090    0.11911932416376    0.10231085562672
S         3.79212117126892   -2.26385813840429   -0.59165545150421
O         3.93601657315735    3.44407376993189    2.46149365767976
N         2.92549891505788    0.90124750173492    1.48383986226875
C         1.76793760004980   -4.07313083620764   -0.80202058013262
C         1.84272819427935    1.31929039199459    2.11711494956171
C         6.67147408446272    3.38922208979579   -0.67842829539101
C         2.75097913724554    3.50289983268251    2.93414342816505
C         3.85950145565480   -0.72108286069454    0.22929518395279
C         8.16843773901380    2.47924720694791    1.65760596706354
C         2.43925003865652    4.75873417589665    3.66645295360924
C         2.05680724210610   -2.74944188715626   -0.18772757900006
H         1.98565961931853   -2.77039724449506    0.89789311534395
H         1.41984177312058   -1.96150940106286   -0.58621335802480
N         2.82512918017239   -0.30565941707540    0.86252045407134
C         1.75495989726341    2.54172723714775    2.79916432295344
H         0.79727972427775    2.76852710102252    3.24014667537262
C         1.88769151022466   -5.24182264295340   -0.05339715492694
H         2.18219544692042   -5.18304842879255    0.98334329668027
C         7.85447534710539    3.52642330163361   -1.39233288788360
H         8.80436095781852    3.47142317905538   -0.88085479932271
C         0.63392788104880    0.42479544963704    2.09208392869007
H         0.33698526985223    0.23892283140515    1.06092446294707
H        -0.19457110093932    0.86982391309611    2.63370062682846
H         0.88415399124768   -0.53758505626120    2.53632115396878
N         0.98945720060700   -7.81256713881154   -2.56427310605404
O         0.66700182461072   -7.82965761673993   -3.73403412742638
C         5.44705561660735    3.42807425560895   -1.34934778958206
H         4.51641309885474    3.29578974518616   -0.77665596287450
C         6.59534427790377    3.76574568379419   -3.42435189375077
H         6.56874683825233    3.90842951733222   -4.49437517490120
C         5.41088458074688    3.62152864138146   -2.71712305756517
H         4.46467882894330    3.65085966128114   -3.23695578033442
C         1.26115259114744   -6.53371852923500   -1.96337254513646
C         9.30246060663117    3.28560445690643    1.69339464577135
H         9.23187966973507    4.32716447551855    1.40971594989029
O         1.09665778165743   -8.79902401491095   -1.86599977662304
C         1.14784922781117   -5.37877792567348   -2.72937382293643
H         0.86219852992696   -5.46002757206120   -3.76687093350260
C         7.81117716783234    3.71416677629572   -2.76386026201097
H         8.73187323323379    3.81478793709277   -3.31948384299298
C         8.24418844893739    1.15238732308000    2.06739990144507
H         7.34139694439150    0.54649145103614    2.05889627276965
C         1.40244213423546   -4.15614040935060   -2.14456337512774
H         1.32317405855555   -3.25250705228667   -2.72924485174135
C        10.50876913064674    2.75159439183318    2.10788730291929
H        11.39196820371114    3.37318669373830    2.13250975786293
C         1.63386821630129   -6.47131121358055   -0.62575948618073
H         1.71884323491544   -7.38591182473116   -0.05926600379566
C         9.45397090667536    0.62426891840569    2.48153418169009
H         9.51447356491695   -0.40687498848126    2.79608803866661
C        10.58635904393101    1.42238298614257    2.49498723688814
H        11.53202818929533    1.01192805134029    2.81679021208098

