51
CSD_code = WAHDEO | q = 0 | S = 0 | Stoichiometry = C26H22CrO2 | MND = 9
Cr        1.59070898019946    0.27391193659054    2.71964851226112
O         1.20076851680037   -1.20444374664018    5.27514042921232
O         1.32129518049252   -2.48078299645948    1.64649635404590
C         1.50511581839750    2.48001465295384    2.13958510183898
C         2.37506044226690    2.36663654958047    3.22038512427333
C         3.42360780733906    1.42210435832718    3.20061129433582
C         3.69439391390649    0.71744341763393    2.00878212229929
C         2.85126812663863    0.85307896416811    0.89603265875054
C         1.74394882198667    1.71048248970233    0.97419111714857
C         0.38882949027348    3.48335714445047    2.14727427475198
C         4.36371270005616    1.31668091035108    4.36561793262334
C         3.18106862748501    0.15342296341833   -0.38999125349075
C         1.40180281934680   -0.61391413350507    4.28636657583596
C         1.36802888440964   -1.39038546280672    2.04317226113909
C        -0.19762671001572    0.31188633172939    3.39245540822269
C        -1.50081881745573   -0.18386393560025    3.73675291061008
C        -1.10780396808809    0.99836767629570    4.27267753305232
C        -2.44703559819489   -1.24086785796676    3.68174217913446
C        -3.71109571811816   -1.11684751977930    4.27158449621166
C        -4.61420683217153   -2.15713221931721    4.19644083029218
C        -4.27252673671039   -3.33136789555436    3.54111057007957
C        -3.01957247425980   -3.46477946042432    2.95977278949586
C        -2.10951989955720   -2.42954752078023    3.02256373155223
C        -1.33912909176690    2.08562912696724    5.16094326853161
C        -2.60548521384817    2.66412050774965    5.29590481827312
C        -2.78993374481746    3.73988203133952    6.14110152709260
C        -1.72686416336247    4.24444666904179    6.87482062932252
C        -0.46978298106673    3.66944354920698    6.75636262325257
C        -0.27035980268908    2.60655710101009    5.89985062658457
H         2.25023975355503    3.00995113119559    4.08336294793781
H         4.58368781622123    0.10085120063805    1.93777918767968
H         1.12144162699128    1.86554202591785    0.10036722427167
H        -0.52128443201389    3.04510530640383    1.73899626591337
H         0.18057148207922    3.83149912503493    3.15722479319980
H         0.65225708739431    4.34698195874141    1.53319391967830
H         3.84961701083112    1.53532909108394    5.29971220986543
H         4.78258963597395    0.31420448972232    4.43122534805106
H         5.18853679856039    2.02488958382968    4.25799831443832
H         3.63789351427666   -0.81520631986040   -0.19750484120921
H         2.28618789209835    0.00071160698094   -0.98944554590762
H         3.88501713964600    0.75221019067422   -0.97207730529199
H        -3.96744016511819   -0.20390090249909    4.78876524413590
H        -5.58898072987667   -2.05893823477577    4.65222304004477
H        -4.98281200074509   -4.14326651864619    3.48700896711996
H        -2.75552719030101   -4.38252008629353    2.45568882703263
H        -1.12813630249409   -2.51642399246800    2.58205969379131
H        -3.42949680772355    2.27395308298904    4.71644185926452
H        -3.76891613174804    4.18695236520481    6.23566477295125
H        -1.87801994566405    5.08150257877771    7.53997044317226
H         0.35586033971074    4.05828346741740    7.33503566634948
H         0.69756523086861    2.13495521830327    5.81131252077296

