41
CSD_code = WAHFAM | q = -1 | S = 0 | Stoichiometry = C18H15F5NNbP(1-) | MND = 6
Nb        2.02554655258653    4.64362475871593    2.55528261700498
P         4.16289211962216    7.13054573483464    3.50444001976786
F         0.57161416106493    3.59451420098962    1.76013469038163
F         0.98826026366910    4.76852066613308    4.13115412810210
F         2.94162828543711    4.46487363574976    0.91151955457377
F         1.09657089797064    6.15244650775798    1.85437698991647
F         2.86950999683832    3.10709352700853    3.21343405773277
N         3.41715368120831    5.79801766391302    3.29424161380119
C         4.81621331866689    7.90204576692602    1.96998382034921
C         4.10794201492047    7.62076851431466    0.80747738144955
C         4.52123993107153    8.16071872492942   -0.39778983508462
C         5.63943994623392    8.97848101055900   -0.44458963664007
C         6.34705287114669    9.25668287555443    0.71394023239469
C         5.93756852518891    8.72091238357571    1.92210999541035
C         5.62565140055335    6.96816110797060    4.59136814155090
C         5.60511302136772    7.32350827445728    5.93294734911601
C         6.69652120109669    7.04572663546352    6.73787363368988
C         7.80396860750901    6.40252809425677    6.21046927362527
C         7.81667515637128    6.02242906592734    4.87701732829712
C         6.72716924769161    6.29656928884351    4.07229917537034
C         3.15068163303987    8.47402822857836    4.23947478231789
C         3.65935790748018    9.73296008585191    4.53571943629541
C         2.82797186209368   10.70116668808371    5.06842114606397
C         1.49045905628492   10.41682885077099    5.29819206087402
C         0.98185394555028    9.16406923698252    4.99490529188320
C         1.81017614101547    8.18954939812469    4.46439807086745
H         3.97392271346238    7.94037766170780   -1.30265177425520
H         5.96603011116445    9.39748687535046   -1.38672438638175
H         7.22319971202951    9.89039754245701    0.67377246353867
H         6.49453034033973    8.92852979758144    2.82647472788623
H         6.68232648095995    7.32655523738771    7.78216893592496
H         8.65492766054336    6.18718029427330    6.84195202634498
H         8.67580602679987    5.50671539437159    4.47104632058205
H         6.70819100381042    5.99450073637284    3.03319490059795
H         3.22055554725427   11.68144940003973    5.30405039292316
H         0.84423723778877   11.17841730017788    5.71329386497631
H        -0.06165892169346    8.94678866524690    5.17034852102692
H         1.43798835682536    7.20141243039292    4.21344277562862
H         3.24386793938639    6.96696822817636    0.86723310459453
H         4.73410762219406    7.81960159749917    6.33921580761678
H         4.70303642346057    9.94834791268859    4.35098099988067

