113
CSD_code = WAHHEU | q = 1 | S = 0 | Stoichiometry = C60H48AgP4(1+) | MND = 4
Ag        0.84316847791686    1.10579576805844   10.90565387399301
P         2.74472304497358    0.34868105694126    9.48025186518179
P         0.64517079233630    2.57815025946889    8.78017672164749
C         2.19821560496829    0.51982871799194    7.75317339586067
C         2.69639385551675   -0.30283118347889    6.74781301106707
C         2.27979610476213   -0.13988846581897    5.43869715943017
C         1.36128416941253    0.84762166787125    5.12158468267575
C         0.85501518296976    1.66929142151508    6.11302635549793
C         1.26149050525475    1.51431914090268    7.43443119845846
C         4.10432790624405    1.55372638695526    9.57049809173562
C         4.49952618534896    1.95591449813228   10.84322430132081
C         5.52171150362017    2.87142204824593   10.99914873229288
C         6.15038545826647    3.39623875382158    9.88131923015341
C         5.75810789655904    3.00121923229505    8.61267163906221
C         4.73804193563193    2.08110094248049    8.45081223936658
C         3.59907849834031   -1.25499538763634    9.47730029484596
C         4.97933160365019   -1.39474733499050    9.38398171362135
C         5.53925909069771   -2.66042525818359    9.39638699720607
C         4.73268515112844   -3.78182842833503    9.50356120746379
C         3.35667184862347   -3.64390766307284    9.60692146046740
C         2.79105133612375   -2.38383816532107    9.60237317912306
C         1.89700230104902    3.90466701257755    8.73201907891447
C         2.44192789591609    4.36732921818113    9.92350474721300
C         3.39866877843490    5.36490586349743    9.91209475153503
C         3.81752773580830    5.90435618323791    8.70769833269331
C         3.27669419624924    5.44662662556930    7.51605211789342
C         2.31983301628021    4.44965047989261    7.52280681349928
C        -0.81954719885744    3.37481261766102    8.05787985770688
C        -1.00991650681093    4.75127792788984    8.11519586276803
C        -2.19779921483167    5.30094027471933    7.66567978167717
C        -3.20263073155966    4.48550354699520    7.17191028759073
C        -3.02512016738537    3.11035556697293    7.13349934986319
C        -1.84387887128954    2.55487646997969    7.58516051582282
H         3.41305618332688   -1.07409366197828    6.99330514734804
H         2.67342101924418   -0.78303425260885    4.66650856171770
H         1.03679017351986    0.97860838951978    4.10044898926666
H         0.13021628477360    2.43021267475531    5.85841976003831
H         3.99395517686554    1.54351820712096   11.71002077485121
H         5.82133890791229    3.17995736608622   11.98975880286672
H         6.94672232949254    4.11534435755932    9.99802378231883
H         6.24943404057153    3.41128645651059    7.74315708206706
H         4.43445187073241    1.77660573038215    7.45880843475776
H         5.60884151433280   -0.51988632348187    9.30039245925087
H         6.61058807621809   -2.77108738994892    9.32081551362151
H         5.17700881114094   -4.76535095639014    9.51134577455182
H         2.72985570934024   -4.51860634638836    9.69541782325925
H         1.71682338485451   -2.25847353419875    9.68928840739639
H         2.11718824144932    3.93762473806520   10.86637639443272
H         3.81759497971833    5.71547683157562   10.84351745713772
H         4.56590055378144    6.68195469454698    8.69526836854972
H         3.60283772512547    5.86909426034111    6.57748818770348
H         1.90005286389422    4.09354088927047    6.59248141866454
H        -0.22698602670445    5.38923392587571    8.50225094694747
H        -2.33863968632380    6.37111696453301    7.69964732211326
H        -4.12610437184791    4.91954827906979    6.81976196162660
H        -3.81011997891763    2.47279753994478    6.75437716384476
H        -1.69968194075207    1.48099248077741    7.56315617266419
P        -1.05838617725631    0.34872739079937   12.33109199269364
P         1.04116735416721    2.57816367653511   13.03118403537309
C        -0.51191362012119    0.51988128377816   14.05818002270064
C        -1.01008256946818   -0.30279941227462   15.06353186355415
C        -0.59343958076067   -0.13991129875453   16.37264403675550
C         0.32509461104680    0.84757323338113   16.68976241806364
C         0.83133427547053    1.66928072706886   15.69833455256104
C         0.42483378111947    1.51434576894660   14.37693097754689
C        -2.41799413131163    1.55377674345591   12.24091760543468
C        -2.81320012081447    1.95601320507818   10.96820657040768
C        -3.83540905811597    2.87150719356446   10.81232352661577
C        -4.46413318038967    3.39622787436593   11.93017875780527
C        -4.07183088478831    3.00118299836634   13.19881165178629
C        -3.05171322319198    2.08110723402649   13.36063189368400
C        -1.91276715118915   -1.25493763216919   12.33390776968260
C        -3.29301403877909   -1.39469414207257   12.42734160856038
C        -3.85294154218919   -2.66037532372055   12.41509414063753
C        -3.04639493637796   -3.78176992637885   12.30781853178654
C        -1.67039061196329   -3.64384810651831   12.20439867238804
C        -1.10475668107221   -2.38378335095822   12.20888885163459
C        -0.21069123200587    3.90465343435623   13.07932650852938
C        -0.75560883525812    4.36731647250406   11.88783843767513
C        -1.71232223582834    5.36491862831796   11.89924344263116
C        -2.13116643705276    5.90438593383708   13.10363509760567
C        -1.59034760806108    5.44664780605199   14.29528448116366
C        -0.63350734340652    4.44965288216943   14.28853488205015
C         2.50587897641036    3.37486177733774   13.75345438090891
C         2.69622034239260    4.75133075549676   13.69609585108911
C         3.88406511379426    5.30103889642149   14.14565570801563
C         4.88889046650765    4.48564452267992   14.63950308228474
C         4.71141601352407    3.11049280693606   14.67794316257683
C         3.53021003130733    2.55496732190223   14.22624514540519
H        -1.72666356968525   -1.07413306766135   14.81801492950842
H        -0.98701059164315   -0.78311135164354   17.14481909162253
H         0.64956190650658    0.97856936694365   17.71090530800109
H         1.55611108105409    2.43021889175445   15.95295620230244
H        -2.30770824979561    1.54357401437160   10.10139101166757
H        -4.13508488777757    3.18003234589561    9.82172484504524
H        -5.26039807499295    4.11541628051409   11.81350445991841
H        -4.56301969878136    3.41136374796049   14.06833757538985
H        -2.74805939736136    1.77664138313267   14.35262346980021
H        -3.92252391075836   -0.51983096912528   12.51092765605639
H        -4.92429246658078   -2.77101111270920   12.49030989252904
H        -3.49073953584254   -4.76528190043103   12.29972101042524
H        -1.04356985776134   -4.51855704122787   12.11569691519043
H        -0.03052107710993   -2.25843920845050   12.12197261968256
H        -0.43084785055014    3.93762986289403   10.94496357543321
H        -2.13125956462953    5.71547623405641   10.96782205485226
H        -2.87956698460090    6.68195895971463   13.11606605107064
H        -1.91651835757503    5.86909202202563   15.23385232862094
H        -0.21372808128422    4.09354156963719   15.21885982764069
H         1.91326498684085    5.38926206654528   13.30904606182512
H         4.02488919219638    6.37121594627504   14.11163933035388
H         5.81236783240851    4.91971753172823   14.99160685667563
H         5.49643998339818    2.47296195926470   15.05706389199685
H         3.38603418060876    1.48108197819880   14.24828981988175

