109
CSD_code = WAHJUM | q = 0 | S = 0 | Stoichiometry = C48H54N4O2Zn | MND = 6
Zn       11.47729831746366    1.38230367110051   13.22287498071250
O        10.08965734673452    2.47710394323775   14.04606747363751
O        10.20927233999947    0.17231730032682   12.35854145073470
N        11.60262376517454    2.80075461181385   11.77061297289785
N        13.13118757872051    0.63326470187938   12.06755398311078
N        11.69127888337349   -0.02754381648033   14.67165175444230
N        13.00751773028283    2.28134748048326   14.43320135752742
C         9.22542773826734    3.22213115284958   13.49008637176548
C         7.97817419722402    3.54166693811262   14.14165833678013
C         7.07327723899093    4.35202112901058   13.51032861781918
C         7.27224061369811    4.90820627329657   12.22961583839579
C         8.44760380017044    4.61482508985795   11.59863649857384
C         9.43803012729995    3.79642839589816   12.18603582411034
C        10.58899214968329    3.54235287273002   11.42129934256482
C        12.72609903857759    2.71317486597695   10.99433169316457
C        13.17630354593019    3.69440046231772   10.12225733417883
C        14.35173259006892    3.52651862754655    9.38824453694226
C        15.10847562258883    2.39008384716333    9.50576369897569
C        14.71619042706711    1.37909812171691   10.40395563903147
C        15.44720790972360    0.18981385905523   10.60038604079058
C        14.99661783352884   -0.73636986368878   11.50268232715597
C        13.82774688185925   -0.46155953327048   12.22637467489606
C        13.53025722203019    1.54597638353834   11.16733551821349
C         7.69628527916562    2.95546193446236   15.52024956076007
C         6.35492164604392    3.41079743148868   16.10649842243711
C         8.80262865908235    3.38703647053778   16.49309270367844
C         7.66889762403876    1.42558401638785   15.40733753349936
C         6.23451533699932    5.78852221391142   11.54645274242769
C         5.79392950596160    5.11049376555260   10.24120825566683
C         6.85804356287431    7.15652476134511   11.23514959305843
C         4.98830616542484    6.02207070021921   12.40482784861372
C         9.40928879972183   -0.65991983615111   12.88608548968551
C         8.21457110021127   -1.09249717711835   12.20131628498304
C         7.37896660003098   -1.99465978154595   12.80283445016176
C         7.60276166012589   -2.54646720637396   14.08133288245260
C         8.72894275103259   -2.14755249678081   14.74319247261032
C         9.64629568604418   -1.22665231290973   14.18944202009099
C        10.74764783726115   -0.87057676413463   14.98575142016098
C        12.77955973147202    0.16141747121976   15.47976512753212
C        13.30080735665914   -0.77938680472406   16.35679821417805
C        14.43245809229526   -0.50303936761203   17.12600391754246
C        15.07379322434393    0.70505983322705   17.04117922562170
C        14.60731479194812    1.68198703194830   16.14078830634634
C        15.21732538112793    2.94268478992256   15.97913456874672
C        14.70152659691391    3.82918551362916   15.07196404652691
C        13.59186149461153    3.44379433994500   14.30663944029774
C        13.46820663140778    1.40443935814465   15.33946148360395
C         7.90806623421687   -0.52292529640073   10.82096043219481
C         9.07503930369165   -0.83223160602720    9.87272854854288
C         7.72466778345244    0.99515970275865   10.94450381905885
C         6.63366391557581   -1.10419873396614   10.19767061177447
C         6.64365852651145   -3.53731372583086   14.72707536298151
C         5.44308843390084   -3.87442023596038   13.83853687597370
C         7.39348738392549   -4.84348556407302   15.02532059088439
C         6.11321232712790   -2.93341320256919   16.03524926073378
H         6.15090177689646    4.57922341601395   14.01346369629413
H         8.65664198309118    5.00845287219464   10.61340627360393
H        10.59613143941835    3.99805364846640   10.42425290666016
H        12.62331872487993    4.61572203180775   10.01612135371777
H        14.66200823630715    4.31255574281587    8.71495524121468
H        16.00940581767623    2.25783599598922    8.92567752202073
H        16.35400763472156    0.02791844594273   10.03453037150354
H        15.52795342513825   -1.65995072124832   11.67241374408430
H        13.45818506393912   -1.16228921927922   12.96123584654383
H         5.52127034938913    3.08782969083023   15.48685124119383
H         6.31936783695852    4.49201630339248   16.22268678685091
H         6.22908769266817    2.96472895133577   17.09139808438280
H         9.76871038030569    3.03907872642099   16.14193696779445
H         8.82930475071759    4.47245596113152   16.57460622754479
H         8.61693275901014    2.96912671622101   17.48091413291809
H         8.62458644694071    1.05792585172061   15.05131151114122
H         6.89827588354777    1.10846153843794   14.70694897166067
H         7.46189401639086    0.97664298836398   16.37709282446744
H         6.63142408007590    4.98744169485262    9.56031964743880
H         5.03209629841330    5.70706326094138    9.74285995977644
H         5.38156517168284    4.12616472676195   10.45203055903488
H         7.71614015490850    7.05829433301276   10.57626044906333
H         6.12839788084218    7.80250324895426   10.75054479953203
H         7.18805455917038    7.63615530756147   12.15432992907222
H         4.29166331069300    6.66137710977382   11.86527359843259
H         5.24283673546404    6.51775293265494   13.33885993151230
H         4.48166241312576    5.08496230199301   12.62306261869367
H         6.49458071755748   -2.30386717016564   12.27584953898265
H         8.95424645112500   -2.53324308064566   15.72801443468927
H        10.77537552239184   -1.33696467620028   15.97745670181158
H        12.83998573344849   -1.75235138297909   16.44005827079178
H        14.80067380457965   -1.26154773266498   17.80165235701099
H        15.93936985799556    0.92056007128661   17.64942202410629
H        16.08503915979669    3.18943668168402   16.57486025057108
H        15.13851763471750    4.80529219233562   14.92961088387496
H        13.17490200248453    4.11117023946070   13.56612221086616
H         8.87273069237140   -0.42434153063391    8.88398569064206
H         9.99282818427693   -0.39381790127808   10.25103406334756
H         9.21154009319329   -1.90875645436799    9.78315013984331
H         6.90742445992973    1.22675435916496   11.62530356917956
H         8.62882945915644    1.45221309736621   11.33004696210736
H         7.50031239858450    1.43142189393662    9.97279867032456
H         6.48779051599461   -0.66284306781688    9.21342096020051
H         5.75685327732229   -0.87249841894822   10.79833273831074
H         6.70943331746742   -2.18231982934335   10.07227293420686
H         4.85297780869570   -2.98668422689233   13.62349503249941
H         5.76243493900564   -4.32782560727341   12.90290545890382
H         4.80065191848246   -4.58652004609309   14.35359063122980
H         7.78728675331713   -5.26859395917939   14.10439103571025
H         8.22468177648664   -4.67473465200961   15.70410677271084
H         6.72221267828959   -5.56851603637158   15.48167785035878
H         5.40713645692241   -3.61387730439850   16.50758578990654
H         5.60675986349226   -1.99191153987145   15.83408456688955
H         6.92144737884527   -2.73983351234937   16.73477748549029

