111
CSD_code = WAHKAT | q = 0 | S = 0 | Stoichiometry = C44H60N4O2Zn | MND = 6
Zn       10.55831260240194    1.91169150153925    4.18635133982885
O        11.36916442270691    3.48718827021224    3.53123807945071
O        11.77760467851708    1.19714867601545    5.43745527439377
N         8.51357298051893    2.53055380271966    3.36047994704201
N         9.41404700347291   -0.07765675887851    4.07881521920630
N         9.62610689919575    3.14031482589554    5.78391563356721
N        11.56232145153967    0.73260683786343    2.59476489320955
C        10.78287073049941    4.63798419762734    3.33048804281207
C        11.40591703494520    5.87580868839381    3.65754104469017
C        10.67636432784312    7.03777733595583    3.51180765509870
C         9.37559584471220    7.08480368572963    3.00916972061370
C         8.82227662226778    5.88968248741504    2.59127041088667
C         9.50243419922593    4.69171548115139    2.74270860532287
C         8.88374216251189    3.41484652954162    2.24782478550648
C        12.14869739766830   -0.05388826090860    5.51840496588227
C        13.50491634291534   -0.43375438771590    5.72463051135122
C        13.82478828001070   -1.77507576919608    5.68049339004134
C        12.88897034663409   -2.79532153056297    5.50575992498907
C        11.56083065604425   -2.42094990870962    5.42873798778554
C        11.19119388054819   -1.08519203152318    5.43378641768800
C         9.73869909570995   -0.70525718807281    5.36602391430946
C         8.63996536979500    3.91944861546252    5.34795536564608
C         8.40942666260483    5.18787164841312    5.86425004768429
C         9.22275031218929    5.64889806071005    6.88232595183424
C        10.22069920834227    4.81514492288474    7.36452883149434
C        10.39360918827311    3.57693303650425    6.77142590697280
C        12.75235550791693    1.13430852537460    2.17361552548017
C        13.75182698341719    0.25430753272792    1.79800737940224
C        13.50748246910036   -1.10755030823961    1.89247530391147
C        12.25946275090170   -1.52846632003094    2.31130479506482
C        11.31026048862216   -0.57243711235948    2.64874732277890
C         9.89548699976490   -0.92868868923012    2.99904788921966
C         7.73470045113150    3.28345043393840    4.33446485240732
C         7.99884518014527    0.22113488232334    3.94203496460195
C         7.81094731776848    1.33902568481993    2.91491601532117
C        12.86294397360106    5.90334881308688    4.10650739943380
C        13.40094841363869    7.32186978687796    4.32596105314447
C        13.71159174742099    5.24265398795765    3.01187866050530
C        13.03365280130403    5.12633646194291    5.41588049395496
C         8.65721723680333    8.42238990468113    2.91115461302680
C         9.44195374897048    9.35255642718905    1.97539341970448
C         8.56647293556886    9.05423467213041    4.30767982117999
C         7.23441053464384    8.28746034015857    2.36040919083337
C        14.55633247605433    0.62620509377845    6.03356276497754
C        14.09973671006789    1.40078026532672    7.27713783656203
C        14.69730263398739    1.59679763199132    4.85664330970163
C        15.93982291151367    0.03631786965546    6.32942493160056
C        13.36030119455023   -4.24090748639000    5.44579858585370
C        14.35534746808299   -4.40437902518633    4.28764816349912
C        12.20965498296702   -5.22638031020061    5.22074951338046
C        14.04759548953158   -4.60726033559548    6.76863415639455
H        11.13506570886158    7.97108157997822    3.79163404659487
H         7.84517033583578    5.86262221744630    2.13025879466020
H         9.60767634930901    2.87710058623665    1.62937156956918
H         7.99425656586539    3.64515392927656    1.63891154240471
H        14.85667338943277   -2.06099620918569    5.79625174097233
H        10.77833272323167   -3.16373276761031    5.36448061009819
H         9.51763265067312    0.02269351046481    6.15131331584441
H         9.11109478955376   -1.59854422626699    5.51855277527297
H         7.61443276524522    5.79723140969332    5.46420367482922
H         9.07660954063361    6.63513099640578    7.29719527629360
H        10.85887331406546    5.12182704853994    8.17799915271355
H        11.16803502375056    2.89590669687811    7.08916264372178
H        12.89227195517242    2.20373248049364    2.13966081106619
H        14.70117097269179    0.62747555590722    1.44796542826263
H        14.27156111288505   -1.82611554739927    1.63576543681875
H        12.01947121822980   -2.57714548447321    2.38835106192265
H         9.81951403586722   -1.99161127339213    3.26329068971029
H         9.28804668403032   -0.76012516328950    2.10387536419286
H         7.07438307796341    2.59872775145659    4.87707714997272
H         7.10891723080832    4.04189093515572    3.84613355013015
H         7.63130617393201    0.55514202768053    4.91427836267066
H         7.41910178510641   -0.66706935793368    3.64674099138783
H         8.24126098921316    1.03256223565166    1.95966667112349
H         6.73899799789757    1.53179480513333    2.75573650498412
H        14.44799596872121    7.26302906921787    4.61838888988980
H        13.33994606831475    7.91314912499359    3.41472555725530
H        12.86221327139773    7.83245361678888    5.12173873340730
H        14.76490434779887    5.25791872373738    3.28572976861902
H        13.58707615914214    5.76785134364028    2.06636001665597
H        13.39810726029065    4.21230580354156    2.88774558199657
H        14.08677279129456    5.07284663844243    5.68565675768996
H        12.49333595648403    5.62310361992993    6.21926761482215
H        12.65118525156117    4.11728492825794    5.30427551476865
H        10.43937561970400    9.54562375640616    2.36025067854550
H         8.92625554988764   10.30529788359172    1.86719836276190
H         9.53978497076263    8.89704063201953    0.99212539044893
H         9.55325847080732    9.20531782990314    4.73568983082735
H         8.06526591400732   10.01914131126208    4.25451772842440
H         8.00191470290248    8.40834999100760    4.97735115724192
H         6.75984091645323    9.26687620207794    2.32953021517365
H         6.62985315722335    7.64013098045259    2.99269513304574
H         7.24455730099875    7.88735274424544    1.34920872607234
H        14.82592553551823    2.16959733174190    7.53448199362902
H        13.14571502496824    1.87455396518090    7.07497638132501
H        13.98774025834878    0.72597585919449    8.12413430017610
H        15.08656506605948    1.07466015502072    3.98496070798889
H        15.38254637884677    2.40201409970044    5.11467380689241
H        13.73244448404408    2.02660224386016    4.60900518045190
H        16.34087983129386   -0.48925332664200    5.46508905752623
H        16.62582503674694    0.84552642903442    6.57396861180323
H        15.90631133252097   -0.64324362010075    7.17838362232703
H        15.20999333913915   -3.74496577268716    4.40757483500856
H        13.87395234239566   -4.16662777444347    3.34116219897384
H        14.71813679777665   -5.42986114886580    4.24245247211330
H        11.68745782380690   -5.01315971900965    4.29019105117254
H        11.49863672924376   -5.19023937835192    6.04269202786057
H        12.60287506957991   -6.23983186084777    5.16118788693135
H        14.91598232740710   -3.97930635111715    6.94600291115689
H        13.35675448101330   -4.47309825318262    7.59829248967436
H        14.37362696474576   -5.64588231008201    6.75250581287415

