41
CSD_code = WAHLUP | q = 0 | S = 0 | Stoichiometry = C18H15F4O2PW | MND = 6
W         3.18936942680854    1.53270422822747   16.77340057488098
P         0.82524144721523    1.39395228108468   18.57950294400080
F         4.30598707807663    3.02149702588517   17.13307962697271
F         3.77285551568484    1.08811122072014   18.57582451163630
F         2.52749729184934    2.73367699600143   15.46005601786315
F         1.49371719485348    0.65685617776125   16.26425066509086
O         4.16473317683265    0.46449802185447   15.92899471385841
O         1.78628888611961    2.42222704089654   18.03403591810053
C        -0.71528936227719    1.42059147614775   17.61739977647678
C        -1.79663099170757    0.59723471635028   17.90127889149067
H        -1.73001884230839   -0.13401726046066   18.69339099561767
C        -2.95294784943178    0.70701535674119   17.14820698650761
H        -3.79612079921281    0.06744425596970   17.36321025223518
C        -3.02655385184115    1.62910655449695   16.11635371416807
H        -3.93002434054022    1.70728582893680   15.53034999467203
C        -1.94028148037516    2.43958415939705   15.82537447175081
H        -1.99314871858004    3.14423490332688   15.00978014577725
C        -0.78186454150099    2.33785323737395   16.57432223457291
H         0.08893586037655    2.94298396568093   16.34410650667782
C         0.47043331253806    1.94384152667083   20.27554900513245
C        -0.79344910201314    2.25591883965040   20.75346562303736
H        -1.65750886173446    2.13363431118393   20.11594501831184
C        -0.93784287439609    2.72915209847297   22.04752573400636
H        -1.92046831888802    2.97327308862862   22.42267080245036
C         0.17460666329564    2.89532696574836   22.85582423669150
H         0.05618190056092    3.26717743016233   23.86252548564222
C         1.43968657226334    2.59427038780731   22.37366975079700
H         2.30587480836295    2.73401860209675   23.00235554221059
C         1.58947302636374    2.11942760057056   21.08395278379287
H         2.56894431654303    1.89082696715150   20.68237284768711
C         1.38197031485992   -0.37192119248071   18.82771390082258
C         0.67986294605387   -1.01415919698858   19.84898590656669
H        -0.04460512731182   -0.45941742451094   20.42811061687775
C         0.90838465556095   -2.34445973092450   20.15307018525602
H         0.35171834399650   -2.81497481522904   20.94908199739123
C         1.85344817083168   -3.06081084535934   19.44032094320672
H         2.04207887411876   -4.09698829150638   19.67528514842917
C         2.55999499782595   -2.43587963703361   18.42528341521906
H         3.30247888964118   -2.98465663258705   17.86731083185637
C         2.33036038765937   -1.10520730589697   18.10519722061359
H         2.92883100382559   -0.66693293201841   17.28306406165071

