71
CSD_code = WAHNIE | q = -1 | S = 0 | Stoichiometry = C34H22CoN10O4(1-) | MND = 6
Co        5.43223518690698   -3.55686367584679   10.17482561187341
O         6.10609267975175   -4.77209253671179    6.45899127613205
O         4.74819764386465    0.09581338241215    8.79338710125776
N         6.99713790577444   -4.28745406401857    9.80415854440062
N         4.62149878565965   -5.10532966607374   10.99161724882717
N         5.85337741334358   -1.81804214673699    9.45171674840389
N         6.24146380358747   -3.22582465528358   11.88841689616524
O         2.80372939299406   -5.60902170727530   12.32118494641559
O         8.09681526264687   -3.87385587708454   13.09381274393940
N         3.87974253272152   -2.79955409516153   10.54559398925235
N         5.00854161928737   -4.07502317474480    8.36597019694309
C         7.24537145679229   -4.68303865293018    8.56145557760916
C         5.77793633174865   -7.04730766146615   10.12095830576195
H         5.64096334709717   -6.68329638634936    9.11330555644754
C         7.91343890090895   -4.37872069141629   10.75972357829217
N         1.42811890439960   -3.88989019679436    7.66714157884437
C         2.99220560100160   -3.46851093839534   11.26997628298630
N         9.41738956176955   -1.39329290796226    8.77463997570764
C         5.24696661068148   -6.33121894965866   11.19683600176861
C         9.39388324811127   -1.09059205251718    7.48545658926006
H        10.36269554833477   -0.95906748418383    7.01989922863509
C         9.44814193580719   -5.33046967869193    9.20363664957286
H        10.41844511547218   -5.74045621661750    8.96520967439814
C         7.01524304416821   -1.13993743100504    7.41340922820228
H         6.07598144004170   -1.02201883015871    6.89629975186081
C         3.63816846682581   -1.56993612600868   10.10897822439524
C         8.48108465446507   -5.20863554911281    8.21571562122231
H         8.65631039996482   -5.50838687839921    7.19442543458360
C         9.16465646524618   -4.91648952275431   10.49691844128929
H         9.88393203417906   -4.98556431801416   11.29728921345885
C         8.26908448351209   -1.58019786035394    9.39439519161935
H         8.33282490850186   -1.79939615481434   10.45253635273105
C         2.43187312638907   -0.94285647966142   10.38210281736187
H         2.26075988110854    0.05253739909842   10.00397514836225
C         6.06852284314239   -4.49922110816546    7.65438659924298
C         3.45830534995676   -4.84747715104198   11.61958521590851
C         7.43411060538594   -3.82264915989142   12.06487163590720
C         4.79445446184169   -0.99429604920307    9.35206583204822
C         3.79795760686111   -2.99965523884872    6.53671727329021
H         4.72389043438247   -2.67468992934665    6.08902507046502
N         6.04732035936640   -8.01944685921865   12.69791721641319
C         8.21961632999766   -0.93169822297919    6.76807521995582
H         8.24473081979359   -0.65881782094740    5.72324039888017
C         5.56914815811390   -2.72225555611445   12.99980114464056
C         3.82340590087197   -3.77161825554021    7.70074567381587
C         7.02189525099584   -1.50476989460308    8.76173765557106
C         6.46345968548888   -8.22271776652079   10.36329168986832
H         6.88844095931883   -8.78981505701841    9.54771884523923
C         1.77278522037021   -2.89921007118534   11.60451582923324
H         1.07666835977574   -3.46543313504159   12.20256805352167
C         4.63670704173246   -2.95212663956283   15.19264716683178
H         4.47060872181788   -3.51866009797345   16.09691040346801
C         1.49257499077449   -1.62031254667794   11.14596932778987
H         0.54822524500235   -1.15360295318366   11.38346614570728
C         2.59046872304865   -4.21180532118074    8.19864577677962
H         2.54967515464821   -4.85947738617871    9.06495752991504
C         5.39496591534601   -6.89811435622681   12.47056344746596
H         4.95817897889468   -6.41987076849552   13.33510852587415
C         5.38787433595017   -3.47962561808442   14.15941241359577
H         5.83352902295698   -4.45937162465062   14.23344124298822
C         4.09144296609098   -1.68769327865149   15.04000648097224
H         3.47988119186653   -1.23925059065550   15.81301215332523
C         6.58540677210646   -8.65990159001431   11.67258552784788
H         7.12486460628417   -9.56634413969893   11.91742036733229
C         2.57856565675822   -2.67165576003475    5.97477114446798
H         2.52930625007386   -2.06830355207602    5.08015889949703
C         1.42117722718174   -3.12442545546130    6.58643830091599
H         0.44182453015918   -2.87965316416302    6.19466634791257
N         4.28555128955187   -0.94132118953701   13.96320887459423
C         5.01122163979903   -1.43860108453206   12.98115151687952
H         5.16492970123866   -0.78741982260842   12.12983532384936

