73
CSD_code = WAHYEJ | q = 0 | S = 0 | Stoichiometry = C22H44O2Si4Zr | MND = 12
Zr        2.25277823954212    5.65869686491534    2.88066860090473
C         0.64539033571654    3.88232210149537    3.69583721523362
C         1.50042362723305    3.26417726882241    2.75875552614301
C         2.79031403078696    3.19960470786392    3.32195106348091
C         2.73514331774866    3.78492106462258    4.60359362632945
C         1.40674236221055    4.18809116650226    4.84048136475569
C         0.52618454624488    5.93954009383657    1.05099211156646
C         1.69293247750558    6.49617316069502    0.49226303525327
C         2.02861528766622    7.64534478932810    1.23393713574175
C         1.05025770913525    7.81869493801245    2.23452919143924
C         0.12460360097978    6.76217612331989    2.12485638784237
C         3.12448980487444    7.05799510167274    4.44378369584614
Si        1.86009948244413    7.52284314297567    5.72462261791914
C         2.16941057599775    6.71713144923850    7.43377091958756
C         1.59086234042361    9.39425158239010    6.03029042888896
O         0.42052385610469    6.90235241043153    5.08450155609701
Si       -1.14417762535427    7.14198244887027    5.50371712362201
C        -1.80881615298641    8.72542189757506    4.66727867851018
C        -2.18473658211280    5.62719960090180    4.98838520263114
C        -1.39769449367914    7.31915979880348    7.38705874885666
C         4.43610828395140    5.63336960563219    2.25311531123011
Si        4.67544429194542    4.70706238074091    0.65943404164814
C         5.97119475289609    3.29664194882495    0.66890281304503
C         5.09089183090236    5.83752584802674   -0.82893930103587
O         3.15912704749642    4.00000956993644    0.39720208464068
Si        2.67171267163682    2.83928416642938   -0.65007888344873
C         3.01183277137147    1.11025778407602    0.08704890858740
C         0.81215171261467    3.05289018900234   -1.02311442411141
C         3.54734967383376    2.94083601247733   -2.34291007879347
H        -0.43142830581498    3.94671956833320    3.61237730183099
H         1.18742319949650    2.78314882532883    1.84398043629789
H         3.64317245076246    2.69340456116522    2.89249014870681
H         3.54170997048513    3.80106360657927    5.32670865258425
H         1.01349342517094    4.55269209025722    5.77633856712877
H        -0.05757010578222    5.13134488348482    0.63053492146148
H         2.17085516355856    6.16839376002625   -0.41746113876478
H         2.82114339232853    8.34477755488398    0.99645230484239
H         0.96388886546121    8.66901862222531    2.89602805932954
H        -0.81017634576404    6.68522762976621    2.65994589743551
H         3.99396668138722    6.60221238083956    4.93696480415972
H         3.49809790631645    7.95714690464690    3.93356380564183
H         2.51531241784885    5.69343800451357    7.32956809209799
H         2.93845202630062    7.26336762370740    7.96994053294781
H         1.28197278439574    6.70447850339016    8.05589798401309
H         2.49534785194618    9.85101320219696    6.41790222012543
H         1.33604886245152    9.91066759692174    5.11020810811826
H         0.79532565644060    9.58482538806285    6.74299754570073
H        -1.38586937302392    9.61671236584644    5.12032344258810
H        -1.58094124099506    8.76279668597600    3.60668587317277
H        -2.88734877212459    8.79035978009329    4.77205346386975
H        -3.19805031872397    5.75457642872632    5.35648762929505
H        -2.25385369216875    5.49333841221696    3.91380665941201
H        -1.79912443154866    4.70758313244547    5.41701706541588
H        -1.14030693646357    6.40561360731315    7.91532386535968
H        -0.80122470111698    8.12196221295735    7.80788186060079
H        -2.43777123510866    7.53583342843743    7.61077339367591
H         4.82538828305279    6.65493464636175    2.14459517597464
H         5.02211216978858    5.16589364147611    3.05712421785344
H         5.75754773025606    2.57127742935817    1.44746240291997
H         6.00564166063894    2.76245906598274   -0.27471345079302
H         6.96334613198955    3.69211305462981    0.85872684680061
H         6.13902102579236    6.11726713920884   -0.80355698405993
H         4.90232355863533    5.35820252837465   -1.78269539811914
H         4.51202589591191    6.75557777786217   -0.79953174646805
H         2.65525072065007    1.01542181450025    1.10785350828996
H         2.52403614642196    0.33992995254203   -0.50211200907762
H         4.07436565090059    0.88765103826806    0.09380632931299
H         0.58713905143774    4.04568907427688   -1.39967136384276
H         0.52362102272494    2.34312182727055   -1.79219893118590
H         0.17334755490491    2.86649841506295   -0.16604562981569
H         4.62741192953757    2.89627884466629   -2.24972519052161
H         3.24191752182365    2.11485331407096   -2.97779420738851
H         3.29949897272112    3.85795645829104   -2.86944976942434

