65
CSD_code = WAJCEQ | q = 0 | S = 0 | Stoichiometry = C26H33N3O2Pd | MND = 4
Pd        1.77464859360803   12.67017137529962   16.67415218071245
C        -3.31104937510880   12.36073504336906   15.80504778421767
H        -4.24312254749980   12.56796368024545   15.30122518761473
N         3.45670065860195   11.79500431053060   17.26579774367617
O         3.19153522007595   13.92452048460800   15.69973831482234
O         7.63359137410187   15.18233552892479   16.48901110958481
N         8.07195428860632   13.11894589470613   17.93905441942747
H         8.63918901484155   13.90924983317292   17.62525816411079
C         0.13821156685077   14.59345208449622   15.14542341001981
H         1.07893064879026   15.10584385150189   14.97322898726036
C         4.66285532575403    9.76998807406303   15.49305838466818
H         4.59847851225988   10.78567918649259   15.10713601646641
H         4.65330537857789    9.08457137945776   14.64869007148227
H         5.61235227804598    9.65921758011715   16.01152677742776
C         3.54601661075591   10.41290784722743   17.66444687824144
H         2.70233804961753   10.18019616711031   18.32092445837762
H         4.47090209834297   10.20013884403479   18.20977615192927
C         6.83510564639400   13.19004603491390   17.44394594483292
C         5.81644612385193   12.29481326212052   17.62356714018918
H         5.99560191111267   11.41017097607270   18.21567555574125
C         5.36820985290594   14.65605961230867   16.09092005280531
H         5.21042497105798   15.52695039431359   15.47250867097547
N         0.15703377656112   13.57831141380910   15.98317587193360
C         9.56077891789525   11.12578635305833   17.79880081691413
C         0.39199535607911   11.74298674035191   17.89049747152238
H         0.52367591240495   10.74920783876869   18.33075875031747
H         0.37095843939121   12.47728789808594   18.72128364808293
C         3.48868651194863    9.47233323309350   16.42739196368670
C         8.66580531056070   10.37018827638008   16.81616359487957
H         7.96050359088546    9.73631512704676   17.35019713973535
H         9.26775277522820    9.73707134703468   16.16847908692801
H         8.10655281157775   11.06333562772619   16.19226059094436
C         6.64679080517454   14.44753936191391   16.63215765451453
C         4.31559359521111   13.78152917862429   16.28511889352796
C        -3.18259105791715   11.27525893222527   16.63227527394720
H        -4.02581993528643   10.61680389839392   16.78289034984830
C         4.52178339258797   12.55167310424201   17.12083248941847
C        -2.20628979427371   13.20534649965757   15.57480460618207
C         8.70118932663768   12.06727187204292   18.67731600909871
H         7.93481844821801   11.48221368856607   19.19146617365766
H         9.34561980152797   12.52315258664421   19.43624210519103
C        -0.99159564504597   12.90215458047538   16.23505865039428
C        -2.20139621877461   14.30556389722595   14.69255694855783
H        -3.11169173452615   14.58161676338383   14.18026692212615
C        -0.89289519550375   11.83215095864439   17.16135954858744
C        -1.98759040649512   11.00824495214736   17.31383812093165
H        -1.93439567694953   10.15699606377295   17.97707509338220
C        10.59803236030335   11.94390516767032   17.02749470823340
H        11.20370539579488   12.53819320266375   17.70851670163198
H        10.11592233597914   12.61133260572227   16.31758057502347
H        11.25927706643468   11.28217776536213   16.47290706744231
C         3.58166422656559    8.02900448785005   16.92836766696433
H         2.76039963331332    7.80211346932386   17.60420437630910
H         4.51752317403756    7.86201765055650   17.45710876776394
H         3.53682359164534    7.33692375208497   16.09106070621823
C        10.27051679857668   10.13139039546423   18.71981857086786
H        10.93733740099898   10.64967454865533   19.40521400785270
H        10.86051931653157    9.43095218962228   18.13385343214619
H         9.55003339952199    9.56432466625449   19.30560616337495
C        -1.03477877165979   14.99720365689156   14.49047381300369
H        -0.99848267873447   15.84255338929403   13.82114592013012
C         2.17334482099882    9.66031438113318   15.66306296899178
H         1.32134841725421    9.41575548777374   16.29641303478056
H         2.15456182850905    9.00483453359639   14.79491485197516
H         2.06915237526280   10.70422701169261   15.30727548837517

