28
CSD_code = WAJCEP | q = 0 | S = 0 | Stoichiometry = C11H8BrCrNO6 | MND = 6
Br       -0.56838420337792    5.52511561362231    4.75000470696569
Cr        0.34611674649066    4.61400316279582   10.43214975054691
O         2.70983614201552    6.46774641455410   10.16958917826254
O        -1.04429238158733    6.19029178748423   12.61238768304252
O        -1.67913780305234    2.38232676560450   10.34553917118804
O         1.97180783495146    2.79250859964315    8.58540937676733
O        -0.66026903171703    5.63344384997224    8.83523664906128
O         1.75509369680014    3.17133015472453   12.41601950394873
N         1.18059816964766    3.75977595427769   11.58306899165916
C         1.76685915187602    5.83838231620317   10.27264069268057
C        -0.55639272611998    5.63396946006060   11.74636681441350
C        -0.98153324536602    3.28144571784548   10.37818882092981
C         1.09052589151405    3.75323880331507    8.75355922067230
C         2.17543315913198    2.51971930563911    7.18072507431127
C         1.26642776968024    3.48591292386443    6.40181995606426
C         0.60720574201148    4.23543376219166    7.53672887233124
C        -0.33675729673257    5.25138194246109    7.66184864440658
C        -1.04635734516632    5.96107196278915    6.56531278124622
C        -2.49425195937056    6.32443527902644    6.79140591991845
C        -1.45734661618528    7.39273474359377    6.80562895042355
H         3.23681325074825    2.66791244641535    6.96919241715935
H         1.92570937300714    1.46959371009345    7.01235535700946
H         1.84608437087014    4.14356984434236    5.75295421975657
H         0.54482014298040    2.94821550209879    5.78556734705246
H        -2.92168807103652    6.01542672097994    7.73447249027797
H        -3.16532572690117    6.26026410671406    5.94771479059952
H        -1.17379568045851    7.81586368328799    7.75853897716134
H        -1.40289935465454    8.07668546639997    5.97167364214302

