89
CSD_code = WAJDOD | q = 0 | S = 0 | Stoichiometry = C41H39NNiO2P2S3 | MND = 4
Ni        3.42836570943752    2.41094449798436    1.81777203973054
P         5.42721979278386    3.30681455050433    2.18070187102916
P         2.92250411422878    1.54477048590002    3.79102009236645
S         3.71663324069742    2.61377299284308   -0.36407178019518
S         1.35735857420293    2.44387138214530    1.02671825364039
S         2.38502402817919    4.18896602054259   -2.58950954682266
O         3.32294131029583    3.15217852532065   -2.95154252160657
O         1.53730508815103    4.67988204465704   -3.63060207580034
N         1.44196752093441    3.67686191245288   -1.33336898371813
C         2.04481465990464    3.02385894644756   -0.42228611750923
C         3.26034104474320    5.62567076342594   -1.86522147742509
H         2.54222267014060    6.43391528592691   -1.96947177999747
H         3.42666824289807    5.41273518374056   -0.81203608231534
C         4.56100902142033    5.90440330560030   -2.59235771878903
H         4.37566055182704    5.83477964762715   -3.66636333516675
H         4.88458306820898    6.92629387328522   -2.36769741405095
C         5.66584071313128    4.92597302969290   -2.19628719358575
H         5.37331155521744    3.92326741552544   -2.50540584257893
H         5.77025989405368    4.92363126801768   -1.10775648795453
C         7.00161238725498    5.29251164686028   -2.82865695779464
H         7.77074410584665    4.58796376396329   -2.52022693153578
H         6.92815329960596    5.27135527408324   -3.91313077266689
H         7.30949403080394    6.29209151312798   -2.52526249648358
C         6.95933835222142    3.10769113205022    1.21267702262360
C         6.97841417184509    2.28518092173318    0.09286111627389
H         6.08767351308509    1.74499017039670   -0.18963942210096
C         8.12960726471741    2.16920531055233   -0.66641911482311
H         8.13253717931272    1.53588660425547   -1.54064965969775
C         9.27082350583235    2.86618233208993   -0.30836547859561
H        10.16776097540723    2.78138434351482   -0.90399919847827
C         9.26479694144214    3.66883273451646    0.82179105780459
H        10.15787417899290    4.20419884637576    1.10979493034338
C         8.11810112597521    3.78777636224049    1.58430474240985
H         8.12254083082536    4.39950716327062    2.47617180107254
C         4.90428463082095    5.02777581147592    1.85202752844116
C         5.71077399265198    6.02626803041438    1.32087553383990
H         6.75091195384824    5.82989211001967    1.10631194587864
C         5.17225083853458    7.27325557242961    1.04863021187210
H         5.80067049644970    8.04497310639260    0.62911941661866
C         3.83463303845787    7.53053640253780    1.29797549742598
H         3.42031816708772    8.50155713598909    1.07196311728950
C         3.02279327151610    6.53723049094371    1.82508874570732
H         1.97612857064999    6.73088879659306    2.00726800253627
C         3.55540676134523    5.29166092056701    2.09731404993553
H         2.91727138003625    4.49258892569360    2.50119099143939
C         6.15606646470041    3.40357666582080    3.85071669832542
C         6.03941950104033    4.51470723654129    4.67493820896697
H         5.47403492141348    5.37436661837834    4.34435645410871
C         6.65985253313385    4.52374918306940    5.91177649548533
H         6.57637478768145    5.39391594539000    6.54597886869058
C         7.39137274564640    3.42699682845203    6.33362999152558
H         7.88345713446155    3.44419895667751    7.29455187925183
C         7.48862704250818    2.30578839216389    5.52438540156646
H         8.05098204378037    1.44556191985077    5.85649006747960
C         6.86756171643993    2.29077328716406    4.29127985643864
H         6.93602527837003    1.42172475955937    3.64964787885862
C         3.79472770491360   -0.05350565130002    3.70592536189463
C         3.68980176865399   -1.03358813175314    4.68796511473794
H         3.08212069829822   -0.85481525967272    5.56419283581717
C         4.34846121335431   -2.23898855804148    4.52535667601579
H         4.27285054771862   -2.99940500973853    5.28885727604190
C         5.09511302364344   -2.47941171903877    3.38190918797038
H         5.60505006331744   -3.42380436191524    3.26230908137903
C         5.17107909697823   -1.52080912266345    2.38410970531837
H         5.73126544455797   -1.71964239146121    1.48258776494052
C         4.51815663902144   -0.31248076470548    2.54478995412262
H         4.54306806079887    0.44874405699575    1.75029340868136
C         3.41204180219223    2.32057118429758    5.36268655916078
C         2.85582564053255    3.57325372879596    5.61759392369105
H         2.19226636910680    4.01192392670402    4.88278018985436
C         3.13655717368308    4.23906031305817    6.79443327332763
H         2.69471546427062    5.20527605511636    6.98876993516516
C         3.98495282880987    3.66179949867032    7.72588974246309
H         4.20226991641080    4.17538119940168    8.65054658711483
C         4.55992044630593    2.42991677085758    7.46613405380655
H         5.22961602674566    1.98478246515869    8.18707085256673
C         4.28232077810599    1.76026912336403    6.28692302656254
H         4.74678373438219    0.80687216663434    6.08646294422651
C         1.24160109004629    0.94069033075357    4.15657668933411
C         0.50565418377639    1.29657701094352    5.27910325649081
H         0.92185811261593    1.96899430751307    6.01533041506694
C        -0.76742304486397    0.78226270852152    5.45757244440114
H        -1.33683299388993    1.06005651008900    6.33267482091249
C        -1.31185874961901   -0.08051709136305    4.52206485858160
H        -2.30760541300808   -0.47315481991049    4.66503116680947
C        -0.57982350169135   -0.43614467945496    3.39989288266026
H        -1.00369463668768   -1.10532643507064    2.66620311122633
C         0.69005923118482    0.07290011557250    3.21618322894616
H         1.26518134610784   -0.18967382288347    2.33827829131610

