59
CSD_code = WAJDUG | q = 0 | S = 0 | Stoichiometry = C19H27Cl2CoN6O4 | MND = 6
Co        3.13185574584584    2.51735567460927    2.35709683333142
Cl        0.46288760925925    3.64810595867658    1.01915463250599
Cl        2.91331215133630    4.69232637229210    0.00251352583638
O         4.09068607516794    4.60058097118073    3.91936952250828
O         4.21792555353125    1.34461251126877    0.07941831624125
O         2.02389097730063    0.35908848452353    0.74316523059227
O         1.94179670463567    3.62505284514431    4.75891788483878
N         4.31376183420645    3.84935225945820    2.88591211892548
N         4.34744658894284    2.28181861982787    0.96504113281478
N         1.88569884061774    1.15227329762278    1.81969273801287
N         1.86353862961878    2.70494616542550    3.78224908074147
N         4.19832267738802    1.07349900894622    3.34563580227789
N         5.16552974601642   -0.90604161717015    3.62470770692073
C         6.41674350464910    5.00411353364712    2.36485001217962
C         5.35610624792480    3.97960480568176    2.12724146086857
C         5.38802838086217    3.05246087822776    1.02720788522100
C         6.50551938790877    2.99794397638094    0.03738095381326
C        -0.22221262305116    0.01304702548751    2.36386018738787
C         0.86924300376608    1.00306737359745    2.59714781140130
C         0.84530620004207    1.91771037619080    3.72264909264890
C        -0.28932027547899    1.94520801399900    4.69084307933382
C         2.14926934896587    4.01361887640247    1.45442735480500
C         4.76547880586295    1.04853496343849    4.60283980834417
C         4.82961112128848    1.99939819130276    5.61534412665319
C         5.48500341928885    1.68089917929984    6.78896011366055
C         5.56144953509244    2.70328588667382    7.88111157808405
C         6.78412180179851    0.09561751492432    8.25439929786739
C         6.08249270599233    0.41419744512454    6.97016943234819
C         6.03230025072590   -0.53443907167345    5.96585709987532
C         5.37634280590128   -0.20698703016635    4.78940744608520
C         5.61515536412757   -2.23693121040629    3.33566292561374
C         4.46572704736675   -0.09568958920959    2.81119415181719
H         6.14766167412192    5.58930829276159    3.24106471513525
H         7.38209122835311    4.52829616931466    2.53126012819164
H         6.50145367544815    5.66405359482015    1.50329347287400
H         6.31661612179558    2.18541635190862   -0.66037950817220
H         6.56184462531292    3.93433548260322   -0.51555966058681
H         7.45834281738125    2.83553922721803    0.53864806340095
H         0.02479150076112   -0.60017634123037    1.50115092962728
H        -0.36124968846914   -0.62228617103265    3.23656118494318
H        -1.15646109470350    0.53682506041860    2.16788879445396
H        -0.09095919988464    2.68992083672981    5.45712196948230
H        -1.21090438057971    2.20354860838920    4.17198005897345
H        -0.42046589909853    0.97096188099131    5.15823509992245
H         2.06588681531458    4.86411177815058    2.14102038926726
H         4.39673709344153    2.97679115848940    5.48769890806460
H         5.06762049521156    3.62098308955237    7.57546138181728
H         5.08192474622913    2.33565833437900    8.78756586571399
H         6.59853893156999    2.93103915549950    8.12403776223308
H         7.17901161102052   -0.91693891546944    8.23825465441588
H         7.60952816668325    0.78650612108594    8.42142446747494
H         6.10128532467245    0.18845550326368    9.09780130024731
H         6.49452398224174   -1.50176353237493    6.09440073869948
H         5.31054030130980   -2.50830696805378    2.32684820354191
H         6.70332220429165   -2.29138058345767    3.40749909512329
H         5.18154226306461   -2.94557166171544    4.04457299852725
H         4.18388460581361   -0.39607552549039    1.81867308850780
H         2.83177119694719    4.15799531505520    4.52049173296306
H         2.91880171484946    0.72212204747027    0.28785582159227

