43
CSD_code = WAJFOC | q = 0 | S = 0 | Stoichiometry = C18H20Cl2PdS2 | MND = 4
Pd       -0.00000104183261   -0.00015550456885   -0.00006637626149
S         0.43666262919373    1.56637509473732   -1.68358934662829
Cl        1.00799307813797   -1.72884869946348   -1.14177994427690
C         1.51403054388236    2.61499632095007   -0.64162229568907
C         2.69879491645345    1.71355922890130   -0.31685863680086
C         3.01443757852538    1.01553569139534   -1.60806589595553
C         4.23044686060092    0.52109915338881   -2.03541420262294
C         4.29778912762566   -0.13303907547642   -3.25731573534289
C         3.16520859418472   -0.30850361153421   -4.03325563417291
C         1.92592599066492    0.17111096986518   -3.62237637472224
C         1.88963333591663    0.84039333810635   -2.41009445814417
C         0.67012945228279   -0.05693646986968   -4.39649063744702
H         1.81476812775098    3.46924611865056   -1.25191427554884
H         0.94865423005250    2.94530370245010    0.22897784340344
H         3.54420900679769    2.27209387482625    0.08484426084498
H         2.37564415936997    0.95105361628919    0.43495181870239
H         5.11134638072353    0.63709318073781   -1.42247435519725
H         5.24456538589150   -0.52103972007768   -3.60146652199457
H         3.23608866832791   -0.83710846550431   -4.97213937847537
H         0.88192605528377   -0.47043382199463   -5.37850745319793
H         0.04188085053091   -0.75998977482552   -3.84682891081919
H         0.11202491998262    0.87250814707071   -4.50589818529430
S        -0.43665253188852   -1.56651953376657    1.68366474950235
Cl       -1.00818259778688    1.72849871165147    1.14170662813126
C        -1.51407345062194   -2.61509430233908    0.64169536076154
C        -1.88960564116272   -0.84045203313686    2.41012646268727
C        -2.69885561701984   -1.71368787571450    0.31692076796738
H        -1.81482466410246   -3.46935448427313    1.25196566819698
H        -0.94871985431825   -2.94541139102868   -0.22891579377054
C        -3.01442011984204   -1.01556079916279    1.60809143359805
C        -1.92588747318490   -0.17113408406927    3.62238711912312
H        -3.54430817736460   -2.27223649679489   -0.08469341598260
H        -2.37571761093860   -0.95125404955278   -0.43496018793715
C        -4.23038752351570   -0.52094736128384    2.03535915135411
C        -3.16513974096802    0.30862586679936    4.03320360696375
C        -0.67011761294595    0.05695030950898    4.39653314972232
C        -4.29770544758864    0.13327288599779    3.25721923183961
H        -5.11126159348642   -0.63682096985464    1.42235765288072
H        -3.23600428194230    0.83722630093382    4.97209250159810
H        -0.88205830618600    0.46894828857544    5.37916449294339
H        -0.04266557585237    0.76134484126210    3.84766043280844
H        -0.11112604769490   -0.87214175036400    4.50451438723883
H        -5.24444498193105    0.52143463256097    3.60129129600939

