43
CSD_code = WAJFIW | q = 0 | S = 0 | Stoichiometry = C18H20Cl2PdS2 | MND = 4
Pd        0.82303183369822    8.40098484091679   -0.00036800202169
Cl        1.63782685984988   10.56229950246478    0.11177560355522
S         3.01386786785417    7.75773639000758    0.26760536171646
C         3.25730848026230    6.00484757280072   -0.21035445550877
C         3.34172007136844    5.18980732527134    1.07751405960343
C         2.57887764031205    5.93353832254338    2.13500940275368
C         2.09557155011229    5.39353976012502    3.32248999310876
C         2.29728210970370    3.94350611836208    3.63209224118167
C         1.41385873559607    6.23109175052654    4.19816418672373
C         1.22505109261789    7.57425249804003    3.91607320766928
C         1.70464693454898    8.12483280637767    2.73688668936071
C         2.37095984642783    7.27878825919769    1.85698704232010
H         2.38940980826394    5.70947755147701   -0.80146342225677
H         4.16131967293684    5.95414774295218   -0.81394935070627
H         2.92340953579317    4.19615365519214    0.91549351024551
H         4.38225320962280    5.07467125187859    1.39898415443218
H         3.35363380290308    3.68295783558462    3.58415993619205
H         1.92188891261646    3.70594984980374    4.62362844565351
H         1.76688704422250    3.32900711653304    2.90516917953843
H         1.02088479974714    5.82180251996573    5.11698944186952
H         0.69418173101601    8.20048921882926    4.61705326305691
H         1.59680030258920    9.18892274276994    2.52773128345970
Cl        0.00844838208032    6.23955886257849   -0.11219390913079
S        -1.36810710597982    9.04371626871424   -0.26797895953275
C        -1.61114737100548   10.79664766706835    0.21002379936617
C        -0.72425671154128    9.52249925868678   -1.85703787357423
C        -1.69415638026534   11.61201059820916   -1.07772492382699
H        -0.74365451112936   11.09160578946688    0.80193227938008
H        -2.51562890960990   10.84762575146118    0.81287413977591
C        -0.93132508425424   10.86790956203272   -2.13496155966608
C        -0.05821076583220    8.67619707447259   -2.73693121031130
H        -1.27510619092573   12.60528424825100   -0.91526439019351
H        -2.73441126700658   11.72810651641130   -1.39973807317731
C        -0.44733185133818   11.40780957980305   -3.32221119451020
C         0.42208425419303    9.22670322256453   -3.91588048675437
H         0.04881505996054    7.61196973199628   -2.52808480200772
C        -0.64810920831858   12.85798871729837   -3.63170345489326
C         0.23417409882851   10.57001585071025   -4.19781019488783
H         0.95279794280777    8.60026497643198   -4.61680065310614
H        -1.70439784628614   13.11900937415505   -3.58483355732887
H        -0.27155971412644   13.09557195357331   -4.62279773089527
H        -0.11820637356157   13.47207332444354   -2.90407893172027
H         0.62761771125949   10.97922704005187   -5.11647008496342

