59
CSD_code = WAJHIZ | q = 0 | S = 0 | Stoichiometry = C15H31B10CoSe2 | MND = 7
Co        5.06204090317750    3.85475793459273    7.45388852373304
Se        6.89305812455823    3.85477052213582    8.72013467460756
Se        6.14052367093059    3.85476822425520    5.50224598420762
B         8.70308011251249    2.39796677036266    6.59496261059754
H         7.92435849392985    1.53556513415897    6.77931487243150
B         9.85449667618565    2.96758196734196    7.79275204829415
H         9.91292886818431    2.40181582641147    8.82095168039977
B         9.19732436091608    2.96739039332498    5.00886275648845
H         8.78842175409022    2.40277332116662    4.06262873826846
B        11.13398885808286    3.85476539268442    6.94066584980670
H        12.24244585015620    3.85476700586963    7.33204639321799
B        10.40615084127728    2.40174704807694    6.19307485299728
H        10.98725722743159    1.38969398385544    6.05531596808912
B        10.72266323416396    3.85476466430526    5.19825177439915
H        11.53827241270648    3.85476576529424    4.35168866386467
C         8.43010116801140    3.85476069695726    7.47167031013886
C         8.06844204660267    3.85476001386852    5.93258962541232
C         3.60635558093107    3.15255533932645    8.76977912968121
H         3.70714915059111    2.53014200176170    9.64468516334105
C         3.14289076067065    3.85475648223815    6.64212825174131
H         2.84622016444553    3.85475679954523    5.60698017307564
C         3.33758085263273    2.69946121355535    7.44107115942057
C         3.17137952518544    1.25897757552204    7.02880965833901
C         1.88657356092162    0.72677229661321    7.68082874728774
H         1.95159212335941    0.77860540246372    8.76521135639281
H         1.72718109430161   -0.31002399591188    7.39378958290930
H         1.02640258970105    1.31114933362827    7.36010537888468
C         3.06461647890064    1.13073122185990    5.50738092353185
H         2.17023880598868    1.62561618591382    5.13565231820680
H         3.01146299182974    0.08130547451746    5.22730390885346
H         3.93616008222782    1.57060145610714    5.02354302441041
C         4.37530134914043    0.44062368982174    7.51402200190646
H         5.29598748342711    0.83972798229770    7.08812825347678
H         4.27593002077178   -0.59608443242558    7.20096796866934
H         4.45757420052368    0.46357939949745    8.59784358723964
B         9.85449322717843    4.74194443828086    7.79275205010509
B         8.70307429595487    5.31155555467763    6.59496280964092
H         7.92435115351939    6.17395610964888    6.77931457673616
B         9.19732088640230    4.74213362881585    5.00886291495216
H         9.91292486572282    5.30771205724491    8.82095097567166
B        10.40614548038877    5.30778100745238    6.19307485876216
C         3.60635349343107    4.55695652758806    8.76978008515229
C         3.33757795805014    5.01005133795015    7.44107253482436
H         3.70714483573652    5.17936910555130    9.64468689546422
C         3.17137281802743    6.45053500739362    7.02881217344387
C         1.88656196925533    6.98273551472461    7.68082566100812
H         1.95157536411016    6.93090098615004    8.76520850537124
H         1.72716748603557    8.01953174899504    7.39378728225451
H         1.02639438380338    6.39835625760789    7.36009726169803
C         3.06461602800616    6.57878321473316    5.50738310270828
H         2.17024142341950    6.08389627751490    5.13564978033254
H         3.01146092234909    7.62820915320454    5.22730707410347
H         3.93616288782293    6.13891596732475    5.02354848038460
C         4.37528939350481    7.26889280722939    7.51403095517644
H         5.29597913270529    6.86979119148148    7.08814238652143
H         4.27591665396166    8.30560060911216    7.20097626787511
H         4.45755630394445    7.24593755750016    8.59785298700060
H         8.78841783870146    5.30675049970856    4.06262888094319
H        10.98724977950523    6.31983534911540    6.05531558554590

