93
CSD_code = WAJJIB | q = 0 | S = 0 | Stoichiometry = C31H51BN8SZn | MND = 4
Zn        1.15940835449384    4.67312162934702   14.89113701115750
S        -0.19261446255817    3.71523434631140   13.12866349366256
N         1.65773962324527    6.59841645784045   15.05560925737984
N         2.66601390973068    6.81991769398062   15.91291577179486
N         3.14610191058539    4.27348008034423   14.48572122834882
N         3.94036166351079    4.72339207306818   15.47461373574287
N         1.48405980915499    4.02443602706412   16.76005167409183
N         2.37509245229978    4.80120327537785   17.39628886311085
N        -0.93008012170399    5.01058109199803   15.29352297260011
N        -2.67423262316605    4.41328718259349   14.08108656254233
C         0.63861360032874    8.61450614522043   12.31498809006939
C        -1.06393475688524    8.54729385015839   14.17209160064000
C         0.15828402733200    7.86303794770844   13.55717809991706
C         1.25735776131538    7.76392753408018   14.56422527353489
C         2.03150897946658    8.77910716343341   15.12700113602969
C         2.91890656974790    8.14137347114790   15.97786580005426
C         4.02210074391615    8.74944681177707   16.78576281005946
C         3.66579976638120   10.16415792278166   17.24009673629731
C         5.30708507974267    8.75742864287562   15.95041010135519
C         3.25605783069233    1.34474506069520   12.68281501322769
C         4.16456832016261    3.18724816835996   11.22521864988546
C         3.32207787910260    2.85698175299954   12.45760590807622
C         3.88101150350189    3.52508288725302   13.67133913428693
C         5.19059791667458    3.48064933853068   14.15337077654261
C         5.19099322624179    4.25236734103643   15.30123021631653
C         6.31642118490302    4.49422589729329   16.25756274904549
C         7.67403235149491    4.33971214817851   15.57459648005990
C         6.19220402703753    3.52011185026623   17.43462749122466
C         0.41147003010218    1.25133259694460   16.34359371255658
C        -0.86211898867214    1.65086746384300   18.47838933575803
C        -0.20984284122273    2.30594327058874   17.26414550566979
C         0.83356521866492    3.30123859351135   17.66602923135828
C         1.31770677559235    3.62690577856927   18.93267701191636
C         2.29643129338560    4.58524995125990   18.72231928444559
C         3.09091963460276    5.34340106014318   19.73837471879338
C         2.42222412070929    6.70151199263414   19.97934128576259
C         3.21874859183646    4.56561494406004   21.04666053572271
C        -1.32926231000642    4.39668957290385   14.18820717213339
C        -3.14873145256242    5.07857135546687   15.19178550675494
C        -2.06238468835554    5.43708818922372   15.92452108369646
C        -3.44898237811990    3.84534828267427   13.01738049462326
B         3.38082880057330    5.63273976612820   16.57981658703720
H         4.25021380955323    6.01998691956654   17.27531028759810
H         0.90510687808591    9.63868321900913   12.56639769127110
H        -0.14690123150245    8.63670855205664   11.56305276508838
H         1.51037298268473    8.12309458445813   11.88943903368011
H        -1.41594474280671    7.98431160148741   15.03322088715935
H        -1.86964583047182    8.60495972978316   13.44333616025814
H        -0.81340432015107    9.55611799155979   14.49340920528937
H        -0.11564459249362    6.84341946181652   13.26641084587063
H         1.95567655572038    9.82986866939275   14.93834313482223
H         4.18847437978446    8.13297648103116   17.67289864351893
H         2.71890332541127   10.16745623021868   17.77480223561598
H         3.58603651983955   10.83392834593294   16.38798199769030
H         4.43869197777211   10.54730546008702   17.90248151957733
H         6.13340303442437    9.16215265316900   16.53048608903134
H         5.17258329305889    9.37030091148194   15.06190303769706
H         5.55890452127086    7.74743701850123   15.63603583927264
H         2.63089371697202    1.12019286708841   13.54357483490481
H         2.82930768655992    0.85558390794647   11.81067379795832
H         4.25080126870468    0.94027026759939   12.85952414822039
H         5.17440186301496    2.79754409872891   11.33282461272457
H         3.71669645786375    2.74455872964933   10.33877272915842
H         4.22253093089526    4.26376631725974   11.08216712491382
H         2.30681488809173    3.22939374719347   12.30040895070294
H         6.01914682934292    2.95887872540195   13.72187087553504
H         6.23751732408855    5.51522727892661   16.64216594033794
H         7.73894498663161    4.98375097562549   14.70090507772350
H         7.83179404518634    3.31098201315882   15.26145800551217
H         8.46985727001547    4.61089892028073   16.26471284706382
H         6.98056747210781    3.70227695390256   18.16166831709754
H         6.27572886389863    2.49484477959079   17.08081656648288
H         5.22833764502186    3.63766755798882   17.92352925355819
H         1.21458531992483    0.72575928828731   16.85704520702992
H         0.81749830475367    1.72518102339096   15.45180804007139
H        -0.34045929139426    0.52707931958407   16.03800004469953
H        -0.12593091135299    1.09107161571933   19.05125413790610
H        -1.64035787245053    0.96246775114565   18.15630285525044
H        -1.31338637759454    2.40031369444978   19.12442085006262
H        -0.98010417208177    2.84031225930221   16.69692434948682
H         1.00347118294362    3.22255112562158   19.87169544075058
H         4.09452084839961    5.51785591033812   19.33980564721229
H         1.42671610405592    6.55915428455469   20.39430703075057
H         2.33024606974354    7.24810149147197   19.04406049658741
H         3.00825063278695    7.29423266421612   20.67825040138876
H         3.87345677285900    5.09818870831981   21.73272226823906
H         3.63682994104100    3.57821231336417   20.86600045632516
H         2.24834793375475    4.45129874448365   21.52264603263458
H        -4.19677128201961    5.22986590947568   15.34846592267693
H        -2.01261964525196    5.96111575586216   16.85826324507826
H        -4.13643602777189    3.09093091093632   13.40594440243844
H        -2.76096030961122    3.38012653711733   12.31232346279500
H        -4.02367335854738    4.62065910836208   12.50593914770608

