39
CSD_code = WAJNEC | q = 0 | S = 0 | Stoichiometry = C10H22Cl2N2O2Pd | MND = 4
Pd        2.70540340776817   -9.99691741918732    9.11030306219156
Cl        1.38965957202858  -11.84271469531648    9.40618932199598
Cl        4.01890184167297   -8.08828646645288    8.96907434480360
N         4.29338189415033  -11.26719595373087    9.29636707779856
H         3.86661401792435  -12.16895119619481    9.04285672613764
N         1.09300026610763   -8.75973646490341    8.99201272458461
H         1.50447614151584   -7.83625520160843    8.79824394385890
O         3.95706709566661  -10.27970723584199    6.67619482207951
H         4.25109110613888   -9.36890233368584    6.86205228648252
O        -0.05794416180788   -9.20662363396555    5.48268867059957
H        -0.80741966949630   -8.60084692142318    5.49937910308435
C         4.87949229916615  -11.40162974309190   10.63145063203795
H         4.17075932163333  -11.87071584655859   11.31804255334298
H         5.13047678081961  -10.39971122800676   11.00011608843228
C         6.16046395524215  -12.23497251923421   10.41448144631704
H         6.97204638178981  -11.87071173969028   11.04086130701570
H         5.98694697384337  -13.28067524467101   10.66486637066240
C         6.48011725741574  -12.07636561786537    8.91394885081434
H         6.34625327648437  -13.02112798957511    8.38536045068021
H         7.49838442734797  -11.73537023407046    8.74279247146779
C         5.45090744448459  -11.04863304178545    8.42221748379353
H         5.81688215679693  -10.03041817597501    8.61353515072073
C         5.02598453521400  -11.15633962173828    6.95717828453561
H         5.88299316241965  -10.94563130669727    6.30291722404877
H         4.65194373063727  -12.16216587924710    6.73797575457123
C         0.25310273089365   -8.64187304840393   10.18783555923063
H         0.79193688438699   -8.13399651021790   10.99176049260141
H        -0.01497445454999   -9.65159028303902   10.51629904332240
C        -0.99855416476502   -7.87642227970957    9.71643752522037
H        -1.89486944269313   -8.26631298429421   10.19396389588151
H        -0.92142873148517   -6.81758661903069    9.96234291581451
C        -1.02600951751901   -8.08417729875022    8.18925009451076
H        -0.85458499245746   -7.13730026988509    7.67144167954521
H        -1.97626336988002   -8.49283325797098    7.85158085111312
C         0.13873837632687   -9.05334566337814    7.91741824358387
H        -0.19963290358843  -10.09044640402342    8.03607484254479
C         0.80724469770148   -8.90368506699017    6.54568628623126
H         1.20761885425526   -7.88094957180084    6.44220140686196
H         1.63899281842732   -9.62147503190842    6.46960101145505

