67
CSD_code = WAJNAY | q = 0 | S = 0 | Stoichiometry = C27H22BCuN9O6P | MND = 4
Cu        2.37136804367655    4.11929009144670    2.83426401180076
P         0.98065652460117    2.35320729280689    3.06374300029201
O        -0.09561930989832    5.03272858228485    3.90297926601403
O        -1.37153306845272    6.59451350281883    3.13235259981697
O         3.54574920540799    2.22152421119865    4.60729777442530
O         4.24994801276621    2.58189324524327    6.61610472111713
O         1.91779669418802    2.91550096632104    0.29359112920369
O         3.40589367300049    2.17107485398596   -1.08242275861138
N         2.06441820521364    6.23795280501100    3.02147132452039
N         2.94186216764197    7.09782115233573    2.54790139772903
N        -0.28231698382106    6.09525544365779    3.33183546485792
N         4.18516021577133    4.65601944763197    3.85203409311272
N         4.68681320003935    5.86947738131915    3.75296266162693
N         4.05664267724507    2.92239880851076    5.46615993674121
N         3.52940670364434    4.80134021561016    1.15662814019954
N         4.50750568268513    5.66842402444897    1.31627931845456
N         3.01827948562279    2.94921263191847   -0.23381937359690
C         1.37990467931202    0.87333386973041    2.07629154327517
C         0.43497080470585    0.17930232131710    1.33135948223099
H        -0.59776025225102    0.49710663456690    1.33585677890789
C         0.82157664819561   -0.91206151325241    0.57277099207049
H         0.08510880150054   -1.44631294564089   -0.01013586071074
C         2.14571918822377   -1.31531484740776    0.55129220915218
H         2.44369940144966   -2.16185713494842   -0.04969608156120
C         3.09076044723160   -0.62583528074070    1.29477220324631
H         4.12544744894864   -0.93633786123812    1.27460150105027
C         2.71128779306241    0.46631728599448    2.05115413450719
H         3.43475901765057    1.01721049190275    2.63512717084642
C         0.83835060007250    1.66457391907893    4.74634548061623
C         0.70412309046268    2.57195300076654    5.79384153651771
H         0.65849527336402    3.62719322216180    5.56527661874587
C         0.62704924592557    2.12282315033701    7.09816519949362
H         0.52793852829788    2.83036664513890    7.90870490491283
C         0.69095391770121    0.76463069104660    7.36752574522306
H         0.64328702866621    0.41346080480118    8.38784541567273
C         0.82486880397385   -0.14018694394098    6.32842990244408
H         0.87846414466024   -1.19895337909985    6.53789384791251
C         0.89925077129027    0.30392181728482    5.01948293642976
H         1.01468354252232   -0.40590818884845    4.21293398524191
C        -0.76378000518646    2.65238518061235    2.62553838625501
C        -1.01444230668592    3.39147551776448    1.47263695259986
H        -0.17714739463211    3.72564476969016    0.87663504110441
C        -2.31294347885963    3.68449193311852    1.10229194432255
H        -2.50328817863317    4.26308680405422    0.20987986020796
C        -3.37110253376618    3.24706045417045    1.88345365865239
H        -4.38592160590267    3.48616874183123    1.60122374270867
C        -3.12548620509174    2.51108492540407    3.02995296503131
H        -3.94980360286222    2.17169193577283    3.64076313545891
C        -1.82675768872697    2.21283182414758    3.40445192772961
H        -1.63989490607534    1.64661095456495    4.30579777840530
C         0.85927768876599    6.78761895714376    2.88456704401434
C         0.96698770169979    8.06161937688021    2.30231352756045
H         0.17182447900656    8.73978739932871    2.07708764485720
C         2.32153933944213    8.20959997211415    2.10596275539486
H         2.87437757149951    9.02578694926340    1.68803179701300
C         4.45634724615992    4.21598277067527    5.07930495180897
C         5.17021385856500    5.18794054506911    5.80008977792080
H         5.52922400960212    5.11505016726027    6.80444186038764
C         5.28952527994125    6.22636504943929    4.90421265907227
H         5.76112196908613    7.18164487756496    5.01185547600873
C         3.88946778748153    3.97700812300786    0.17463386530990
C         5.15344368848761    4.33398955337585   -0.32416841749204
H         5.69464283136072    3.86033441630811   -1.11515883753987
C         5.50387345743385    5.42199575718992    0.44293495165594
H         6.38571506208503    6.02893446847286    0.42016471168300
B         4.42101923034619    6.68015709749912    2.47220790694207
H         5.15379665109628    7.59389106276428    2.34309057897289

