58
CSD_code = WAJPOO | q = 1 | S = 0 | Stoichiometry = C29H22FeO5P(1+) | MND = 8
Fe       13.04304142156746   14.49255033652715    3.66793219383572
P        11.36906668497913   14.32443497207321    2.30081086421060
O        12.17220423799293   16.87344662983322    5.06541194077334
O        11.90075937033873   12.81624499120772    5.73144718309295
O        11.49252526929530   13.46015458627196    0.97557765625580
O        11.16447029641152   15.76728101028858    1.67688935657481
O         9.94688005236383   13.78558467913665    2.80048292211163
C        12.44706358004649   15.93138286971309    4.49630360514170
C        12.31873625556101   13.45415746115846    4.88712178051109
C        15.24354116885234   14.99991338851564    4.00361243841118
C        14.68931164861158   15.58334728149312    2.80547718487000
H        14.76070477118846   16.62348764810625    2.53320529824438
C        14.32551030418777   14.53210515197200    1.94283833577928
H        14.03165295449747   14.64063422629017    0.91059943881092
C        14.48180106761813   13.29254673391292    2.62923065401135
H        14.40635098191290   12.31857511926096    2.17284170743430
C        15.13862384136938   13.56579257137401    3.87570651610482
C        15.67866814845485   12.73077169219281    4.87318982060095
H        15.62595162028569   11.65804325268193    4.76755943982659
C        16.30403402643679   13.31334490076246    5.94291312799051
H        16.74835291558955   12.69329257774572    6.70574374151663
C        16.41034087863575   14.71406592928994    6.06583183493047
H        16.93181878298993   15.11937554048240    6.91877794090442
C        15.89499263803028   15.55988951901184    5.12000125318752
H        16.00601426544837   16.63029804391631    5.20331394508580
C        11.64213575843926   12.08004465813168    0.90699006838796
C        11.67955011125574   11.51831508385527   -0.36065213608101
H        11.57546384671364   12.15591818685642   -1.22403216501631
C        11.83915094594285   10.14959466366459   -0.49042428703423
H        11.86574046985504    9.70886274129421   -1.47437586054068
C        11.96236402984765    9.35006964600076    0.63435838813328
H        12.08535321894466    8.28394648418902    0.52892986816358
C        11.92318913981630    9.92080404797522    1.89517422171828
H        12.01423190842875    9.30309014727943    2.77505205589882
C        11.76335160677291   11.28967650228783    2.03624074097917
H        11.72861397268355   11.75059882090194    3.01465519391235
C        10.28055588168750   15.98933344204509    0.59395591831643
C         8.92593651292692   16.14685610287364    0.82565775853082
H         8.53426148757631   16.06618440316432    1.82809984319195
C         8.08727692404783   16.41747332599428   -0.24368388568831
H         7.03028135609779   16.54416353271963   -0.06958004336313
C         8.60072999511920   16.52296502484742   -1.52503973629120
H         7.94298585609762   16.73237348963504   -2.35391447929714
C         9.95847740226225   16.35925453301802   -1.74346043680564
H        10.36248077245704   16.44125365424544   -2.74045337323312
C        10.80551407073901   16.08643943421237   -0.68264007404257
H        11.86581522699394   15.95703410491151   -0.83532175334897
C         9.40354375732165   13.98759462888420    4.06449763286067
C         8.83273511046187   12.90015155271283    4.70835605616351
H         8.83463607666887   11.93636601742972    4.22398480055926
C         8.26455434904446   13.07838116923701    5.95777069461253
H         7.81741221505567   12.23724677545170    6.46343393808935
C         8.27158550862597   14.32762903586024    6.55724204137584
H         7.83064338849899   14.45997562101097    7.53246626113944
C         8.83503633155286   15.40893513522301    5.90133388360165
H         8.83009035882974   16.38607007021465    6.35814521066390
C         9.40395837788131   15.24300309394609    4.64911635809317
H         9.81992684868418   16.07967375670691    4.10699711613620

