55
CSD_code = WAJPII | q = 1 | S = 0 | Stoichiometry = C29H22FeO2P(1+) | MND = 8
Fe        7.41651914992908    0.19718224959019    2.52471830494186
C         7.24251020003702   -1.43027874421152    3.18583947645696
O         7.06442034491721   -2.50132885461623    3.52418820384503
C         6.27237776266068    0.89277778832455    3.66646384825585
O         5.47674590938594    1.32355549858533    4.35507301848753
C         7.94820754625153   -0.51096475047635    0.54722664291654
H         8.46359836522779   -1.40288190282260    0.22914096539966
C         8.54148123326687    0.74883209284030    0.76572840647327
H         9.59742175497727    0.96587324376990    0.71048481509876
C         7.51613629069547    1.70355493252892    1.00764087786684
H         7.66782344566960    2.76807555554868    1.07873607403760
C         6.25399068109265    1.06882954168547    0.74419898538157
C         4.93587896207017    1.55813881192250    0.67007630108605
H         4.73612058688066    2.60491970428726    0.84108003825529
C         3.93373695170702    0.68542239904142    0.33832393671217
H         2.91953883887853    1.04321275730428    0.25295202762529
C         4.19359259715538   -0.67486755071926    0.07692238738982
H         3.37018605478449   -1.31449786715274   -0.19997149232930
C         5.46161901161807   -1.18934311200850    0.14088722294786
H         5.65904483282354   -2.22529617143674   -0.08992681357596
C         6.51935712624268   -0.32390882802738    0.47957067761964
P         9.06750231828736    0.78478329239303    3.84724151414626
C         9.71403411751624    2.41777578438559    3.39120837231356
C        10.97996111917657    2.60031541325254    2.84545110380374
H        11.64076667323866    1.75508325081228    2.71163358284120
C        11.39384629110052    3.87261391322845    2.48725590679348
H        12.37915076324958    4.01656670100532    2.07124322231754
C        10.54892173400571    4.95641454171967    2.66100980556396
H        10.87737316388918    5.94519064079186    2.38114403076504
C         9.27929771882570    4.77419093929696    3.19178542256727
H         8.62159732750371    5.61963713606815    3.32414912176278
C         8.85786706921705    3.50843048789362    3.54909134577695
H         7.86924320351089    3.34878139116630    3.96099718709172
C        10.50908577505761   -0.32274743568508    3.88033999165026
C        10.58262267569200   -1.43012206624938    3.04346729965410
H         9.76918267805053   -1.63778851226435    2.36208028053171
C        11.68827729158118   -2.26099877795642    3.09352773585870
H        11.74485236009339   -3.12132005701621    2.44438246632303
C        12.71923351363842   -1.99012043665089    3.97839763674080
H        13.57974492836632   -2.63966469575364    4.01744403793822
C        12.64579374962510   -0.88875966829918    4.81835596425280
H        13.44765852449486   -0.68170699007731    5.51017136065717
C        11.54422493870941   -0.05528510991614    4.77587722787168
H        11.47974057562908    0.80119525294579    5.43268097646626
C         8.67153903779192    0.95451079185798    5.61445980149381
C         9.17358505383432    1.99387212064407    6.39399401983568
H         9.78709177203496    2.76381247928409    5.94801463725663
C         8.87697968525698    2.04601578156647    7.74488020904979
H         9.26434748506255    2.85552765825372    8.34433542122099
C         8.08771032087648    1.06736479143856    8.32571341109984
H         7.85697938115756    1.11514659198293    9.37843466493865
C         7.59293814969758    0.02617044095135    7.55496976941625
H         6.97986150439017   -0.73848018379663    8.00622805629034
C         7.88331258624938   -0.03126148670804    6.20517272149568
H         7.49896886691780   -0.83885077452174    5.59600778932157

