67
CSD_code = WAJVAE | q = 0 | S = 0 | Stoichiometry = C23H34CuF6O2P | MND = 3
Cu        3.48375898528448    4.29536950589253    2.57748295402420
O         2.78071855820097    5.44688922570872    1.20008811506341
O         2.42564672841332    2.70122701945058    2.21492447823541
C         1.89040331095167    5.01271741040415    0.43559827464445
C         1.27550712631652    3.76056190869649    0.40174758236988
C         1.59130360958868    2.72702638067828    1.28243401374609
C         1.38693899084653    5.99646101871277   -0.63817444484939
F         1.99503299613125    7.18014054115468   -0.57183089531348
F         0.06732829892893    6.22297678658459   -0.52548216094468
F         1.58435656392591    5.52020499380175   -1.87914910306619
C         0.79080819072623    1.42914972399226    1.06433353142393
F         1.12834667798005    0.47474837738946    1.93224962878682
F         0.98092192840342    0.92710534349159   -0.16707652663209
F        -0.53094022320506    1.63008611497772    1.19238285749878
P         5.05877249362336    4.53294590177373    4.12073666638838
C         5.39003756695814    2.91259276014333    4.97165907939791
C         4.03943324877482    2.37312363996218    5.45302811334718
C         4.17926212594444    0.97643890888195    6.04964551596626
C         4.76352365567202    0.02279658994242    5.01487857700532
C         6.12164293980313    0.53506941647190    4.55086710618427
C         6.00003972123334    1.93842036720558    3.96194342178831
C         4.72114295964241    5.79249209663039    5.45621307703951
C         5.24478418319224    5.46892895024347    6.85485462256708
C         4.95282990465810    6.64031913214549    7.79238710406563
C         3.45452401271608    6.92252983177805    7.84778792085917
C         2.91659459552585    7.22563769064731    6.45225292742383
C         3.21568780145729    6.06922341524249    5.50274881315207
C         6.68211579865849    5.06411947367041    3.38821018397987
C         7.83644591965835    5.27031686168900    4.36561335172403
C         9.10692640185888    5.61543621366462    3.58917607226485
C         8.89531703460600    6.86511179921416    2.73912714354244
C         7.72598126450309    6.67025065939916    1.77726129888851
C         6.45665947377969    6.32551909084217    2.55097800806671
H         0.51845003897279    3.58292752026432   -0.34459284995578
H         6.06930847676416    3.04923158792855    5.81945024447501
H         3.36010177041011    2.33306141122101    4.59570553989350
H         3.60298486550412    3.04609618505528    6.19369663354189
H         4.83418743526486    1.01359274664819    6.92435694619037
H         3.20130812923821    0.61987183525492    6.37716847200016
H         4.08641848046164   -0.04000780375967    4.16119991859561
H         4.86683425272695   -0.97708769062320    5.44004298778796
H         6.81003135402845    0.55804657618761    5.39985834183126
H         6.53990832979298   -0.13822584957710    3.80035938495811
H         6.99013042639278    2.27978704407125    3.65365578124917
H         5.35453908308710    1.90994034038357    3.07798402978428
H         5.21319484043405    6.70958135424699    5.10668573684675
H         6.31880008833855    5.27796772596180    6.83111229065956
H         4.75022515915795    4.57837472822628    7.24436067752673
H         5.47666272892783    7.53128311468587    7.43824312975997
H         5.32533565858983    6.40981951415361    8.79248522514745
H         3.26029144944830    7.76615188490407    8.51242848151511
H         2.93695780167288    6.05084825292465    8.25437063882530
H         1.84010858005731    7.39875548989544    6.49693108710583
H         3.38572977377844    8.13621362199588    6.07265241156854
H         2.68592756330825    5.17467147988104    5.83779448013363
H         2.86172608896725    6.30466657083558    4.49415956919177
H         6.94441116356948    4.25494804666223    2.69381952491458
H         7.60381665198558    6.09163370345326    5.04556133763678
H         8.00131435417778    4.36862453341849    4.95925143555840
H         9.37433292402811    4.77770983912185    2.94111237717273
H         9.93205025673482    5.77495090054184    4.28628234721079
H         9.80453604799905    7.08872329071868    2.17840056880820
H         8.68877282704222    7.71594435664047    3.39239007947166
H         7.56823651074025    7.57860255346604    1.19361027351665
H         7.95883016127040    5.86153393554016    1.08119492177459
H         5.61871042012487    6.16399374480956    1.86587272569941
H         6.19777346187568    7.16583030331866    3.19879794084982

