91
CSD_code = WAJVUB | q = 0 | S = 0 | Stoichiometry = C42H30B2ClF2FeN6O6P | MND = 6
Fe       -9.53866940467533    5.28818198666912   16.82383039952346
Cl       -6.23764238087511    5.22917414530383   13.93811749070027
P        -5.74639781434358    7.66656984652185   15.91899974727310
F        -8.86137935224232    8.23393645948809   19.89994002435807
F       -10.24334924599435    2.34167381501186   13.73656278062128
O        -8.39110079498595    7.72337966109190   17.68265299511711
O        -8.54770615826061    3.58100739517135   14.73593208420385
O        -8.54258462510159    5.99610244095078   19.38267885962686
O       -10.43653435990393    2.72085172944249   16.01207737190818
O       -10.53392040759399    7.18920357131296   18.67911170969014
O       -10.76792854863223    4.50057822265528   14.39395944361864
N        -8.33245926547482    6.73525365519874   16.77554883124068
N        -8.30348675649791    4.65385691680542   15.51090187692641
N        -8.92805033287059    4.97953055880825   18.58061978833440
N       -10.03915105154749    3.47982102382637   17.05444192580630
N       -10.79961122812188    6.48327419800859   17.55777347939906
N       -10.79923449500417    5.36993539142680   15.42342377140424
C        -7.27791629663992    6.63452056800181   16.01496965287593
C        -7.34740408220731    5.46833751063568   15.20232860456293
C        -9.14719846900260    3.80841441568964   19.11728430350235
C        -9.68230417670737    2.88109083403591   18.15990337887246
C       -11.80004537001038    6.86285036516807   16.80663299539496
C       -11.87083260503040    6.09869319865915   15.59331651885345
C        -5.68717676849285    8.21176036599493   17.66345243916739
C        -5.52386972009531    9.54005050094089   18.03395004325756
H        -5.49852448759576   10.31279761353051   17.27816152101373
C        -5.40843091065991    9.87273275273435   19.37167417478489
H        -5.29917909329900   10.90894078137676   19.65713896262452
C        -5.43989183221903    8.88674493258215   20.34211711159352
H        -5.36603971009416    9.15265484185824   21.38571961912994
C        -5.56313017425466    7.55707878913261   19.97404234325981
H        -5.57994729430944    6.78726632013048   20.73097285801678
C        -5.66884347470068    7.21852521157385   18.64050239423527
H        -5.76160962899981    6.18026619717917   18.34499153772459
C        -6.50336170775409    9.10109649565864   15.05103298787137
C        -5.98418727460580    9.42250815114286   13.80107061759865
H        -5.16358674535591    8.84187602775278   13.40322306798919
C        -6.51127471664548   10.47664707676601   13.07582158304382
H        -6.10242005679576   10.72327679122720   12.10680067732426
C        -7.56287152070485   11.21272780067800   13.59503559360336
H        -7.97636370877439   12.03649335898660   13.03147765001246
C        -8.08430444917112   10.89336535785561   14.83917191061359
H        -8.90450427940335   11.46774706808239   15.24538100719236
C        -7.56121901163511    9.84235322725847   15.57080522799106
H        -7.96594426113343    9.60377943734980   16.54241233020343
C        -8.93370773334549    3.47674620890711   20.52877711497664
C        -7.81894562390466    3.95107795571213   21.21729455416001
H        -7.10191408019719    4.57147515668829   20.70446244734888
C        -7.63279633085230    3.62176780908155   22.54705098584564
H        -6.76406680201580    3.98896457543319   23.07249007592580
C        -8.55495459210967    2.82572356622006   23.20550096209078
H        -8.40670311469379    2.57030023065342   24.24400347042063
C        -9.67299925721137    2.36248150115149   22.53002119947164
H       -10.39976925387916    1.75001977113984   23.04241747169617
C        -9.86446775533354    2.68264530964756   21.20041574966288
H       -10.74284838007841    2.33225248420711   20.68035420337925
C        -9.74260767474132    1.43419755555963   18.38776347412945
C       -10.83671258384697    0.68397352572886   17.96199105476661
H       -11.65515022355175    1.17286748247474   17.45851137259204
C       -10.87266011031572   -0.67939270471783   18.18934937411883
H       -11.72621535654710   -1.25268950691646   17.86052342716103
C        -9.81991929253909   -1.30915606330381   18.83161471978871
H        -9.85062294024964   -2.37422554458719   19.00604586724478
C        -8.72186780325962   -0.57040708166302   19.24337637118849
H        -7.89323588963486   -1.05950856029051   19.73325224370156
C        -8.68031138981205    0.79271302237483   19.02650246057286
H        -7.81769785071569    1.36355307344928   19.33467337388519
C       -12.70009707831957    7.97941230603702   17.10934175834310
C       -13.07180463582061    8.85535017661553   16.08797226354535
H       -12.68887621466366    8.70628437563855   15.08990855829246
C       -13.90763386099436    9.92111025899583   16.35714487858686
H       -14.18643886264199   10.59604360727005   15.56175261686837
C       -14.38444912562823   10.12673693331984   17.64226888291896
H       -15.03957463002354   10.95979489157954   17.84868491275556
C       -14.01263255287138    9.26576857969619   18.66096197811119
H       -14.37650693265446    9.42657400372948   19.66451564299637
C       -13.17218376005638    8.19870398906682   18.40182142916951
H       -12.88124441833354    7.53110578776057   19.19666618128336
C       -13.03631411888791    6.09469429420091   14.70412436080781
C       -14.32127300851480    6.10942821962603   15.24883538315520
H       -14.44781347498917    6.11641228032993   16.32076269120950
C       -15.42642159092321    6.09265914403795   14.42082127389918
H       -16.41693562902111    6.09809762989719   14.85071433821139
C       -15.26699532539095    6.06451050240025   13.04426166165043
H       -16.13333594305255    6.05248632908609   12.39999086193252
C       -13.99463084217675    6.04465539419032   12.49832072780514
H       -13.86595951765662    6.01713045904948   11.42687278562670
C       -12.88252754699795    6.05565835758095   13.31966975231772
H       -11.89272169092448    6.03720840957498   12.89295289190298
B        -9.07859893758344    7.30973367115193   18.94553836116277
B       -10.00706821461605    3.25553362251346   14.69404014124569

