67
CSD_code = WAKGEW | q = 0 | S = 0 | Stoichiometry = C32H18Cl2F10N2O2Ti | MND = 6
Ti       18.16316602371858    0.56192579370145    4.94585538908127
Cl       19.73230339467646   -0.67346458459700    5.90791626150856
Cl       17.01406635110724   -1.14428736445533    4.11928232450822
F        15.78217033230085    3.43391755072220    0.94645716239328
F        14.53837556883554    2.83856826144915    2.58361500337134
F        15.88484337021858    4.50651753037578    2.80096868666373
F        19.91158352005364    2.90879901911469    0.03236909031249
F        23.30352264500077   -0.12881585551212   -1.00836237460044
F        20.99987232532108    3.93574696016418    7.04866594930015
F        19.24723746817866    5.14926395612515    6.73666393827711
F        19.63829791841074    4.28874679225262    8.66192251849238
F        15.78916828898853    2.76799662834586    9.65728116305895
F        13.27449700942211   -0.94519611105257   10.96108055936329
O        19.05389729119691    0.73761762526955    3.41877437380598
O        17.23648783112791    0.61899621791174    6.46102327718268
N        16.81966008905993    1.92622004445295    4.01266859688278
N        19.06386667442654    2.32233438791486    5.73778498532101
C        15.79656889171428    3.48208601936703    5.58643697377975
H        16.55938479093092    4.21670823695504    5.36848954891662
C        14.83837561723206    3.74127677547022    6.55148846188408
H        14.86105553198298    4.68160697691775    7.07996652929668
C        13.86419902884981    2.80199612706040    6.83971581542984
H        13.12118305000482    3.00888206039358    7.59445931094292
C        13.84466848122997    1.59611736510571    6.15570528099373
H        13.08377247965012    0.86209747668951    6.37364169222118
C        14.79691112883737    1.32085961004549    5.19292969042819
H        14.79648452120634    0.37975397905497    4.65780584701677
C        15.78215367091083    2.26772347753564    4.90486835068541
C        16.87411565687358    2.35125836748174    2.78619510844865
C        17.90606029858984    2.05310790716149    1.87836748776591
H        17.84203183237204    2.44925386012970    0.88043695734534
C        18.97838667129705    1.25193366489337    2.25100489131994
C        20.09242070426598    0.92857577164854    1.33625699035042
C        20.80747809391575   -0.24850594643258    1.58371834174079
H        20.48992917261826   -0.87118269395337    2.41047690578538
C        21.88062358154286   -0.61820909562604    0.80091431486697
H        22.42457251325801   -1.53000148119479    0.98659328584119
C        22.26003537320076    0.21242347421106   -0.24189467698295
C        21.59762564367947    1.39773571685856   -0.51067377291658
H        21.91378497198092    2.04291573073150   -1.31429769055425
C        20.51932824280560    1.73848710181769    0.28339299385355
C        15.76458581001729    3.27492166706588    2.27292238879227
C        19.61796523331517    3.97554109676705    4.03458698025858
H        18.68070093684455    4.48431562013375    4.21284806109208
C        20.46862686167240    4.41687532554471    3.03553000497587
H        20.18694190847566    5.27175284498191    2.44070338777225
C        21.66616444826264    3.76571509757961    2.79859970812007
H        22.32417488164820    4.11350451058827    2.01722288731698
C        22.01828274507267    2.66739779133679    3.56813105058235
H        22.95380399176082    2.15900975870299    3.39018364611660
C        21.17786017290123    2.21216813101184    4.56614207970289
H        21.43873604011227    1.35138974497218    5.16882149214314
C        19.96772422495065    2.86775037453467    4.80268420667516
C        18.88842408487717    2.81248101937673    6.92812488674789
C        17.96899609141123    2.32033801392455    7.87168371942890
H        17.91478940099423    2.79942697394974    8.83315142899366
C        17.15447252229040    1.23331160560420    7.57903611792767
C        16.14915955542386    0.70769676308177    8.52539237377058
C        15.50883702427962    1.46375370492021    9.50788439995365
C        14.54020480410767    0.92287310057877   10.33159801600376
H        14.05378972528630    1.52861274942526   11.07892031603769
C        14.20987683290626   -0.41101173269465   10.16574861244256
C        14.80975046512614   -1.19863929067428    9.19566505003745
H        14.52203845055883   -2.23187292115774    9.08906425704913
C        15.76610813837842   -0.63038684794723    8.38105996174672
H        16.24804288615789   -1.21591876591548    7.60846338688651
C        19.70057671217443    4.04130632980522    7.35036603604349

