68
CSD_code = WAKGAT | q = 0 | S = 0 | Stoichiometry = C31H27N6OPPdS | MND = 4
Pd       11.00551689032454    7.06664953243164   14.15316373078720
S        11.71502440950162    5.41207724140475   12.71421112998642
P         9.57477052516015    8.28370307320451   12.93353522565290
C        12.81868290815203    4.67567365813261   13.86842253373701
C        12.41974591781696    6.75965857798738   16.57643533035532
C        11.56707548640611    7.90773730851250   16.75841409363544
C        10.48071414792592    9.60093745466602   17.33539442904618
C         9.95779236666826   10.74435007799942   18.08629093762161
C         8.95121094364128   11.55991643172381   17.30881515404294
H         8.57846635228547   12.37352439574241   17.92516124317041
H         8.13340445811977   10.91821269047827   16.99085487435115
H         9.42759803944854   11.95250652515099   16.41322867273449
C        13.35001864993429    6.28435522684160   17.63701212640022
H        13.06966355471653    5.27781270399096   17.94834258927263
H        13.30632671225480    6.95911373202466   18.48627306513358
H        14.36549295313756    6.23691830353896   17.24393782335403
C        14.40049412852310    2.75688106783511   13.95830277090046
C        14.91302992339020    1.71875147935476   13.17973438441340
H        14.57378514430275    1.59918817601182   12.16002649655624
C        15.84753172220732    0.84916797850081   13.70586595377721
H        16.23689717404336    0.04985358870419   13.09293164142514
C        16.28402951066008    1.00019081182276   15.01204008499320
H        17.01472919286573    0.31989352924548   15.42201876363480
C        15.77574370187130    2.02940953090581   15.78635279179979
H        16.11071486624133    2.15299071598879   16.80558873336928
C        14.83962934159141    2.90639986033598   15.27081798273924
H        14.44081361245282    3.70784068027408   15.86860251276948
C         9.27905406428821    8.14843410689643   11.14480676206453
C         8.97363759605843    6.87824379687252   10.66332401540943
H         8.95678327317959    6.04480348286689   11.35625391962206
C         8.71704043355267    6.69233787454460    9.31917624205167
H         8.48185802464990    5.70748335561371    8.94411707934285
C         8.76991652746141    7.77272898386212    8.45117002568006
H         8.57369365315413    7.62820341992965    7.39915569524381
C         9.08238775304302    9.03511059682243    8.92753488418196
H         9.12964404930933    9.87278847633686    8.24706352482328
C         9.33915611445998    9.22895645437644   10.27403767726658
H         9.59093681881122   10.21186999689514   10.64809717087805
C        10.18191411119268    9.97832669568588   13.18075388453133
C        11.57408886204896   10.07343711280115   13.23138036625721
H        12.17985846225202    9.16530987825635   13.08881552649830
C        12.17782188585636   11.29205314419733   13.47266814630102
H        13.25421356876777   11.36696360687896   13.51892936143415
C        11.39454183735492   12.41914395434677   13.67409923184828
H        11.86408015263928   13.37012607450610   13.87694765129745
C        10.01371662894034   12.32453563636705   13.63386105184481
H         9.40846825738330   13.20330396173226   13.80363199229324
C         9.40190203886925   11.10625448995435   13.38826582768457
H         8.32500989381610   11.02998614238148   13.38548324981592
C         7.90099348672733    8.13766316598172   13.61627853542517
C         6.80706875204218    8.83459060471040   13.11409959247003
H         6.92973100905698    9.48948736983516   12.26221218267714
C         5.56352150524646    8.66838844799263   13.69660254298401
H         4.71317350532722    9.21441455735731   13.31514289934264
C         5.40498427657298    7.79880302902718   14.76428637102253
H         4.43256958457339    7.67613916149406   15.21749387409917
C         6.48569393621842    7.07436939223321   15.24233066055962
H         6.35271567516067    6.38322994144934   16.06132451047081
C         7.73216334720888    7.23878662868703   14.66675586624570
H         8.59531609630450    6.66088474081131   15.02291356109899
N        13.46230038624096    3.59834618100299   13.37093446693265
N        13.01261629503863    5.11297998594534   15.07804157214352
N        12.29007819636444    6.19477644802405   15.41446481798993
N        10.73821990726820    8.24843979116413   15.73982238331918
N        10.05577425715656    9.30711105211920   16.09324629880852
N        11.42307168000078    8.74474242795470   17.77914228671525
O        10.30049037692113   11.01722052018835   19.21336573531210
H        13.21769108499184    3.38061095965009   12.41269348024591

