73
CSD_code = WAKGAS | q = 0 | S = 0 | Stoichiometry = C34H20Cl2F12N2O2Ti | MND = 6
Ti        2.72420876816021    2.74415134531254    4.33590941287034
N         4.12886720174727    1.19390544618366    3.96695467518561
O         3.33705330367075    2.60244800575880    6.00786538922706
Cl        1.16030126685207    4.22011383517260    4.84684843094472
F         7.08152635795815   -0.45308246733054    5.13889721071561
F         6.84181432121902    0.38672840332927    3.18176941402189
F         5.61493941578615   -1.27017463361729    3.80850671874296
F         2.29102957826258    5.81319559338001    9.55402701575519
F         2.63545011815304    5.23927907601155   11.59690557563769
F         1.14077672131411    4.22250979506590   10.43438256855366
C         3.25836056655038   -0.29967179857394    2.26018962994733
H         2.78824808650492   -0.89716307519063    3.02995041076225
C         3.08193575351020   -0.61009711034157    0.92320109125125
H         2.46989163115721   -1.45715881666731    0.65277187957551
C         3.68604323418125    0.15563595102778   -0.05953189502531
H         3.54058529630371   -0.08845583307435   -1.10052937415882
C         4.47880232475327    1.23506086990216    0.29662777322943
H         4.95569067419695    1.83368939640814   -0.46421883528453
C         4.66371145495843    1.55815939211328    1.62840502224945
H         5.26648831205367    2.40906659667459    1.91733490919015
C         4.04934246513148    0.78964067793778    2.61784895856795
C         5.10099692302201    0.84622454767673    4.75574025597027
C         5.22198192248499    1.24273831872543    6.09810757312524
H         6.05766155571737    0.87386161854009    6.66515407799796
C         4.29400206637504    2.09783135642209    6.68611733752688
C         4.33444261908805    2.43946648159660    8.12473141397449
C         3.44868054935846    3.42359227018012    8.56852387291094
H         2.81663264024586    3.93123626868385    7.85029388398809
C         3.38741039595861    3.74261610805142    9.91402648349496
C         4.20276080306584    3.09857851994132   10.83583192040149
H         4.14582301862943    3.35542030546515   11.88226949894678
C         5.08697164407248    2.12917570807738   10.39281673604510
H         5.72419209914350    1.62579903737396   11.10308579646738
C         5.15207816593164    1.79477789077660    9.05257213210112
H         5.83202987377272    1.02001897529155    8.73836394076404
C         6.16736955861319   -0.11564876422456    4.22077851029054
C         2.37640818159409    4.75969417685221   10.37219427357380
N         1.31973082621039    1.19379834528455    4.70492227726799
O         2.11174525643466    2.60208412240737    2.66385377415549
Cl        4.28862666419229    4.21973794437028    3.82614036403468
F        -1.63294741104436   -0.45311465913589    3.53301692576344
F        -1.39326137450676    0.38681755238561    5.49009810983086
F        -0.16642159056048   -1.27016545803337    4.86350312263392
F         3.15756798363271    5.81318180250496   -0.88213157566758
F         2.81324728055953    5.23924155807213   -2.92501348102630
F         4.30784205135704    4.22247943493586   -1.76240469662122
C         2.19023530692823   -0.29973890895413    6.41171331247108
H         2.66041423676240   -0.89718668526450    5.64196145050429
C         2.36670790933446   -0.61010771623063    7.74870912444527
H         2.97875242286225   -1.45716562909048    8.01914871407419
C         1.76258998070147    0.15563211133049    8.73142905867677
H         1.90800237875465   -0.08847756218165    9.77242998473811
C         0.96980924364671    1.23503561310204    8.37524993008568
H         0.49288945532755    1.83364913580447    9.13608958386843
C         0.78487375932096    1.55809360588108    7.04346583837751
H         0.18212268033542    2.40901509240487    6.75452276859210
C         1.39921545763983    0.78954018709977    6.05403826350970
C         0.34758022733987    0.84616867994047    3.91613926012318
C         0.22669357875766    1.24254325665843    2.57372096466579
H        -0.60907868075832    0.87380120739420    2.00673141059299
C         1.15480736466864    2.09737896926316    1.98558711097113
C         1.11415725105447    2.43936280162058    0.54708854358468
C         1.99997647235756    3.42346175634633    0.10332987543401
H         2.63198756655387    3.93110728542919    0.82158955454707
C         2.06121115434158    3.74256942696048   -1.24215125031486
C         1.24581198043595    3.09860443506506   -2.16396346601396
H         1.30268198886297    3.35553620516793   -3.21037909573219
C         0.36154993839013    2.12923955154388   -1.72096978549269
H        -0.27561431522773    1.62582210263889   -2.43124790982656
C         0.29636875449598    1.79485672017998   -0.38072902566611
H        -0.38338657497978    1.01991892875691   -0.06656666929643
C        -0.71881127890155   -0.11565016479639    4.45114112236139
C         3.07221318522242    4.75966548222838   -1.70028717919468

