39
CSD_code = WAKNUR | q = 1 | S = 0 | Stoichiometry = C11H23I2MoP2(1+) | MND = 9
Mo        3.67415763524833    6.08350169439054    3.09822272762468
I         1.82600978625465    5.59497703863348    5.08183285834991
I         5.06847578212642    8.43963224823250    3.40243663178798
P         5.23397401277036    5.38944723660655    4.93770480117842
P         1.88681420629796    7.71742401401559    2.41878467670651
C         3.49777765125700    3.91259536234777    2.24304649509691
C         2.84136836328096    4.86475121375158    1.41899802806071
C         3.84956210484476    5.74892614792175    0.89488228368148
C         5.10136477959129    5.31899706485303    1.40955392685464
C         4.87996022834375    4.19074553357216    2.22565087472385
C         7.01749382645895    5.46018930402848    4.56536283154782
C         5.02282479489549    3.70294974903366    5.59771927256083
C         5.16894168268106    6.36548900542584    6.47813022140713
C         2.23234741654770    8.77454026832173    0.97476469353004
C         0.26461701556639    7.02489026635104    1.96030576766239
C         1.40456135840656    8.95662702706686    3.66977144050688
H         3.03553370481550    3.03515145279969    2.67938373543555
H         1.83952532298056    4.74572107333421    1.02785183901134
H         3.73367991628622    6.40541295050151    0.04253909105715
H         6.06947814722542    5.69617081139384    1.10222947926135
H         5.65161681750745    3.55366512958911    2.63507863438862
H         7.31300706804775    6.48483138499642    4.34124583786907
H         7.27825665519685    4.82321552706850    3.72212528538364
H         7.56369441232060    5.12230672103857    5.44708373177399
H         5.17143955298152    2.94794086292122    4.82797851369125
H         4.02520984154433    3.58792723083161    6.02073262448375
H         5.75868557644669    3.55218723658891    6.38872071488026
H         5.40542559954549    7.41349232523403    6.28914220544074
H         5.91333272592323    5.95286318588436    7.16201913788125
H         4.18454988995004    6.29500696454779    6.94277725880366
H         3.17778385247836    9.30257033406598    1.08861093087142
H         1.42706217215280    9.50485868384060    0.88726261099062
H         2.25677813700950    8.17541382069788    0.06583841326103
H        -0.09335793144524    6.32483351393130    2.71381303179113
H         0.32998955911158    6.52285032342746    0.99608594930268
H        -0.44605783935866    7.84796400812283    1.87669523651237
H         2.26620806594070    9.53460965446453    4.00716569089248
H         0.93465093567916    8.47379087822553    4.52768924719341
H         0.68435717308991    9.63363275194753    3.20686326854554

