41
CSD_code = WAKROQ | q = 1 | S = 0 | Stoichiometry = C8H18CoN8O4S2(1+) | MND = 6
Co        5.23125412130102    1.98556213922634    5.83391233556645
S         5.76269595347749   -0.23023956806770    6.31945400897402
N         6.92525683235041    2.55307348734072    6.43653202973244
N         4.76087090835090    2.19913326831634    7.62552092209162
N         7.99729512507952   -0.24281038075842    4.82519301283618
H         7.68191988508546    0.58505074885605    4.29610246366850
H         8.87174508291976   -0.65790488767255    4.54272996952964
N         7.67545273771492   -1.95560296355070    6.32279235520736
H         8.50823403310258   -2.43262459109648    6.01684707811007
H         7.10316013977977   -2.39063243274913    7.02721510378640
O         8.04680087183110    2.79176593555253    5.70916708343912
H         7.78803394921453    2.61830399028253    4.74809018458706
O         3.56229988025878    2.06403362523519    8.07412887310520
C         6.99455680828137    2.72958819024510    7.71472895231607
C         5.75253606913425    2.51733506357357    8.38737052932758
H         5.62908369090680    2.65560863027686    9.45315270666791
C         7.26168434463727   -0.82117885049651    5.75405623359884
C         8.23942935352381    3.16099615174428    8.40019298342311
H         8.51341417091411    4.15882037767478    8.05728785126202
H         9.05923423191376    2.49861477519486    8.12471853786715
H         8.11326660339695    3.16738688166848    9.47729718199262
S         4.69989550515967    4.20138290082494    5.34835630313746
C         3.20150785140418    4.79299477846242    5.91460463262701
N         2.46574157066016    4.21455533853689    6.84331010669618
H         2.78080225342301    3.38634278390175    7.37202595561447
H         1.59168934193678    4.63013135855811    7.12629351012476
N         2.78834425708025    5.92804301600653    5.34667673896470
H         1.95589075830867    6.40536426807140    5.65304361028207
H         3.36069875094691    6.36308862034955    4.64231410084124
N         3.53723912413554    1.41811276256166    5.23128249622521
O         2.41566033233253    1.17952871867696    5.95862491403091
H         2.67442616849898    1.35294695775013    6.91970477019554
C         3.46795263087472    1.24157858618982    3.95308972355520
C         4.70999313042102    1.45376912987632    3.28046042321985
N         5.70164734079507    1.77200609989660    4.04230286775615
O         6.90022998625634    1.90708490200105    3.59372133114562
H         4.83346412324888    1.31543423085632    2.21468828831379
C         2.22306170288052    0.81025246890625    3.26761101589746
H         1.94900690556625   -0.18756534435951    3.61047895163779
H         1.40329984211913    1.47267656334897    3.54311293480295
H         2.34922363077873    0.80389226878714    2.19050692783876

