125
CSD_code = WAKSEH | q = 0 | S = 0 | Stoichiometry = C50H56N6NiO10S2 | MND = 4
Ni      -11.22081669470451   20.99235243942198    6.41265371400205
S        -9.76006396643162   20.55842671280948    7.98613711287453
S       -12.68522768699876   21.42213471034998    7.98334219656601
O       -12.94432693861924   24.10001736936094    1.09974482555754
O       -15.03872196690896   23.37167521443349   -0.79230892959502
O       -17.41214173405108   23.86646380330814    0.93843878284451
O       -16.42691847647768   23.58849320166831    3.70337199288386
O       -13.68792178136798   24.33067825492910    3.57584837288914
O        -8.74688846209811   17.66025608990316    3.56747469272731
O        -6.00817928391973   18.40336173704419    3.69715999081702
O        -5.02377237067193   18.13471929515543    0.93144779274065
O        -7.39637473905272   18.63190235115461   -0.79950330986609
O        -9.48954840188349   17.89532253460205    1.09150712599253
C       -10.60185531492533   22.36085750840954    4.04916955067146
C       -10.20918683697490   22.23530260031437    2.72507431040685
H        -9.34305118190183   21.64744084165703    2.46257945881894
C       -10.96930653796819   22.81634263465411    1.72119475674994
H       -10.64893022460260   22.70043383165512    0.69806131027556
C       -12.13001232414726   23.51345578514244    2.01396838190269
C       -12.53894303926922   23.64064178169451    3.36413637187609
C       -11.76571551864621   23.07619009254322    4.35838916753340
H       -12.03183475505984   23.17901651800832    5.40855475991911
C        -8.61637478181267   21.75116439686449    5.09093069819568
H        -8.09638537497972   22.22261072690728    4.25642176162515
C        -7.79951626755314   21.19365116004637    6.08664322868996
C        -6.38010816108010   21.03631798362367    6.06510670898430
C        -5.45616448166334   21.40197032653466    4.96480164896665
H        -4.43027426518316   21.26689912292189    5.29489030462073
H        -5.60750976663871   22.43716744260248    4.66314452218364
H        -5.64538109584472   20.75254241658349    4.11068585370096
C        -8.19586842485104   20.66326300412507    7.33661960322874
C        -6.86186726422845   19.59642223937040    9.17257616112519
C        -5.72304626394150   18.80560755256974    9.31644522942943
H        -5.03932203734680   18.72691122522243    8.48640016764627
C        -5.48270594033979   18.14929776196297   10.50686274001114
H        -4.59969634751688   17.53596178825094   10.60959968996839
C        -6.37084052798006   18.27189145737252   11.56333311502397
H        -6.18484833202096   17.75336787673563   12.49192417735803
C        -7.49431397539481   19.06816382759932   11.42352236316959
H        -8.18472883892038   19.17840104310336   12.24624629798048
C        -7.74391564984045   19.73591885691647   10.23802930945958
H        -8.61338128759852   20.36458857704528   10.14778978412865
C       -11.83477402716894   19.62652609949818    4.04352014326676
C       -10.67048455068247   18.91154906334015    4.35176960919104
H       -10.40466849605215   18.80688910673559    5.40177419168852
C        -9.89637544073841   18.34979147220706    3.35665780167920
C       -10.30477254601606   18.47934623691493    2.00656106028405
C       -11.46586191307777   19.17618797135338    1.71469737091969
H       -11.78589547884018   19.29395725014153    0.69166532503725
C       -12.22681535222913   19.75458669800392    2.71945924766546
H       -13.09324307425057   20.34239066370146    2.45777402512228
C       -13.82175741333099   20.23194451339624    5.08418224710304
H       -14.33998493353104   19.76077109520040    4.24841433469542
C       -14.64094641720458   20.78827628150595    6.07865210944535
C       -16.06027248293679   20.94570283384504    6.05348438510762
C       -16.98148075384115   20.58017971527958    4.95085271311545
H       -18.00821180294887   20.71456685311890    5.27859445261134
H       -16.82890575513103   19.54528666777719    4.64878933642755
H       -16.79059648236950   21.23037855177972    4.09771562021380
C       -14.24774643521231   21.31881978832316    7.32953647724806
C       -15.58615525836842   22.38876854312135    9.16056610493115
C       -14.70493972254865   22.25458491857236   10.22740314200115
H       -13.83403774359523   21.62749366028915   10.14016676598061
C       -14.95710731847250   22.92575338041983   11.41043835867467
H       -14.26731909424990   22.81956429000396   12.23422039131371
C       -16.08240237385790   23.72008121667406   11.54658652736410
H       -16.27040762496621   24.24125375820318   12.47328407402298
C       -16.96983891277541   23.83717220975095   10.48889043162009
H       -17.85423008528018   24.44899452135417   10.58870710745307
C       -16.72685413348488   23.17758697309628    9.30083941712433
H       -17.40979215045219   23.25228695198797    8.46978266022480
C       -12.76212953234305   23.80430571334543   -0.26363391343489
H       -12.66349208009906   22.72266459314778   -0.41782219729005
H       -11.86914259604215   24.31275654858550   -0.65546028846879
C       -14.00073095681544   24.29393889961603   -1.00895702140314
H       -14.27639832680512   25.28335925925004   -0.62008877685806
H       -13.77647959705018   24.38164523032339   -2.08473385229511
C       -16.32110833501743   23.81782077511060   -1.16618784797924
H       -16.51637434907693   23.57105398341944   -2.22123640261311
H       -16.40922437877714   24.90279441310445   -1.03261977183664
C       -17.35363503493125   23.14395959660627   -0.26564457722162
H       -18.33990366408856   23.13257849563698   -0.75734229660244
H       -17.03788312680073   22.10788947383832   -0.08260524097437
C       -18.04962883849036   23.19898550534292    1.99739420973968
H       -17.68668334198540   22.16478844171645    2.07457709614085
H       -19.14045702124098   23.17710969125992    1.84067489592373
C       -17.72429567614798   23.94294859841983    3.28941110184833
H       -17.78259617610899   25.02055937606294    3.08817442126853
H       -18.45638062472569   23.68626907196161    4.07115892357902
C       -15.83244844160528   24.51414269246796    4.57840938599005
H       -16.35202895753768   24.51761178266920    5.55012812138697
H       -15.87253874113768   25.52425561528520    4.14738671607361
C       -14.37519793796168   24.11865778957230    4.78875608670183
H       -13.94541191510512   24.72987682411601    5.59510176739966
H       -14.33102047229942   23.06160659849118    5.07278946799509
C        -8.06015204989807   17.87070335989327    4.78095276592844
H        -8.48995089221360   17.25807839610846    5.58622116917881
H        -8.10489591066099   18.92729597214236    5.06662779683264
C        -6.60266767784891   17.47610980783038    4.57051892525692
H        -6.08340989200389   17.47132729953220    5.54239791963841
H        -6.56204584195994   16.46671482613776    4.13790682052085
C        -4.71106796821715   18.04938855260318    3.28197096910723
H        -4.65359421230179   16.97244898702634    3.07694539481891
H        -3.97874176012045   18.30275294723503    4.06458914589984
C        -4.38534613021037   18.79775786309873    1.99261452873117
H        -4.74722113847988   19.83203594491307    2.07372642912003
H        -3.29454242866811   18.81908158183535    1.83563216757012
C        -5.08219390473498   18.86178898447028   -0.26987459699705
H        -4.09546200505086   18.87657333505203   -0.76056580482996
H        -5.39969930184777   19.89667012665692   -0.08312367644343
C        -6.11277727079936   18.18969994865896   -1.17398145003674
H        -5.91708472772183   18.44115013013872   -2.22782869512659
H        -6.02270328733271   17.10437906002473   -1.04476405985383
C        -8.43200638545409   17.70720948725012   -1.01720026242070
H        -8.15387833314136   16.71809150483375   -0.62934484081644
H        -8.65597173730716   17.62009869117538   -2.09308175756595
C        -9.67185979492189   18.19299229944084   -0.27143037154975
H        -9.77258952259793   19.27468166719920   -0.42388585034531
H       -10.56371402397877   17.68341082414033   -0.66437295992045
N        -9.91299390479471   21.76776389246228    5.11593060978721
N        -5.96997246371571   20.45668497918492    7.15957935458493
N        -7.05438033085236   20.24324011268229    7.94637526724201
N       -12.52515639280315   20.21683030046502    5.11089251624254
N       -16.47313417420826   21.52568037377292    7.14672274862498
N       -15.39073131900624   21.73938439450925    7.93621856414199

