54
CSD_code = WAKXOX | q = 0 | S = 0 | Stoichiometry = C20H22N5O6Re | MND = 6
Re        4.66417338215755    4.96397240204450    9.07474227343441
C         6.53216531733178    4.70174812293738    9.55852808134853
C         5.16231233412747    5.30043229235422    7.22157969469132
C         4.40954932500996    3.06614431928161    8.75515215924578
C         4.03894675338751    7.38098416439262   10.73906650675216
C         4.06230582214834    6.28204616560374   11.86335003574140
H         3.30604717409782    6.54949992447042   12.61627067353669
C         5.44487571762072    6.26613343916979   12.51070040088872
H         5.47217574025657    5.53618210232281   13.32676824514584
H         6.18899927180550    5.96458208172318   11.76607629202832
C         5.82677002584128    7.63136388624006   13.07610466006274
H         6.05525560022102    8.33137487570119   12.27182232815535
H         4.98486368723923    8.04204754872355   13.64189502369839
C         7.00326321598991    7.49904535185843   14.03383010012342
C         2.31146088536678    4.75620648736102   11.12879332949796
H         1.76264603748459    5.06331603117791   12.02948727127720
H         2.12588074775299    3.68967276701126   10.94787706038144
C         1.86230753294241    5.54420965142048    9.94573413991116
C         0.83353004681990    6.41720595927391    9.68428297365213
H         0.01299956976748    6.76026658276519   10.27687009780860
C         0.38514604137709    7.88805081838153    7.70302054715271
H        -0.69549436482156    7.76075600150904    7.80433575827615
H         0.67327236397048    7.78548890112327    6.65328512996195
C         0.83078783368175    9.22412184287232    8.25624809186815
C        -0.08810069336929   10.11686838671464    8.78664780286968
H        -1.14260920060665    9.87659321302775    8.77696507379384
C         0.34402849936145   11.31652369502274    9.32514813844402
H        -0.37615956560580   12.00889951237747    9.73573130301924
C         1.69436447078600   11.61922029260750    9.34924227892432
H         2.02970506517224   12.54893980649323    9.78393535302006
C         2.61392631065168   10.72797514399502    8.82302756628600
H         3.66815093100334   10.95266379160256    8.85030363666986
C         2.18462479491127    9.53484731861096    8.27359366435959
H         2.90461320518550    8.83579588192851    7.87307890107604
C         8.95733210892730    8.68283550139331   14.94000828484670
H         8.98684841438282    7.75847359383855   15.52063927110216
H         8.85958401577492    9.53162420067879   15.62602507591427
C        10.22325487053720    8.82775254076094   14.10295331017767
H        10.18880511500740    9.73945036939364   13.50942448003872
H        10.32872246286348    7.97901273969926   13.43194728061111
H        11.09381286876366    8.86978495040396   14.75148434481123
N         1.06024222278555    6.83940750312245    8.42086373701706
N         2.14681694623739    6.28680826126945    7.93685320513671
N         2.63668789774937    5.51016884381486    8.83587953940394
N         3.76284492140434    4.96554621784562   11.26774347229747
H         4.14106879664123    4.24569640957872   11.88781410606202
N         7.77641076399805    8.60255044240058   14.10948431980595
H         7.58139640079927    9.38701456321939   13.50774451235010
O         7.63187019233611    4.57926805520338    9.85098320622707
O         5.41807284596826    5.58307321953033    6.14528417968966
O         4.20171697651289    1.94268994870322    8.62513351930375
O         3.51106159563005    8.45260395693683   10.99115460910581
O         4.59316744152943    7.05191048838774    9.65541312996237
O         7.20309926310032    6.50294943171295   14.69787182305521

