104
CSD_code = WAKZOX | q = 1 | S = 0 | Stoichiometry = C51H41F6O3P2Ru(1+) | MND = 8
Ru       14.96305200820717    0.96976026875014    1.86311762800377
P        17.19507181872669    0.75830111922947    1.17726952507631
P        15.39995262080538    1.99519012484675    3.95156601674732
F        18.82977636871015    6.67004514947786   -1.39109180596179
F        18.89507962777812    4.63097829668675   -0.70032662596315
F        18.13223571063012    6.17830441909208    0.58944500679759
F        12.17335114893093    6.42253932214147    0.84907053487236
F        12.75906256514461    5.86887758960316   -1.14627373643363
F        14.26303028289830    6.32839163182986    0.33744366976032
O        16.30588932393631    4.36520363622661   -0.78529584007862
O        16.15674224111564    6.33533039755094   -1.89800822021202
O        12.29165054613037    3.84163162947346    1.38726492787590
C        14.71681029727434    2.51094785909938    0.90574199593862
C        14.28001222031770    3.50057320988862    0.13798352417757
C        15.00230086317567    3.91486128652559   -1.09826631486522
C        14.52291782925784    3.79675858270806   -2.33727048214443
C        13.15297355461487    3.25574319795084   -2.59220876382698
C        15.29462631127502    4.19388089850589   -3.55316611079124
C        16.72796151043024    5.53548555722567   -1.22669180478545
C        18.17257522896377    5.76183554403965   -0.68403865494366
C        13.12784785880043    4.25820756120057    0.62176141244898
C        13.06869398177443    5.73771529794632    0.14690989808152
C        17.79870418054506   -0.95179789468658    1.31088422701946
C        18.03501561904031   -1.74261444980359    0.19061779544066
C        18.46877236728393   -3.04787258364629    0.34953122082606
C        18.66460823641109   -3.57101974818691    1.61717472785554
C        18.42739015409230   -2.78620079088062    2.73568247087339
C        17.99220065830534   -1.48332826182868    2.58533328431171
C        18.47756522384283    1.75640669052600    1.98090547727357
C        19.68430230966408    1.25159480200252    2.45410275342708
C        20.60749685741601    2.11564943698719    3.01830260034279
C        20.33128715629652    3.46979902366299    3.11885816667529
C        19.13499822179778    3.97644184845516    2.63214125733999
C        18.21515744021948    3.12217154793805    2.05454681195682
C        17.44201155704975    1.14626650346051   -0.58187928258040
C        18.70395988789036    1.51463801387124   -1.04168557325244
C        18.90883933909398    1.72934993830099   -2.39241590763745
C        17.86870738046882    1.55908579686893   -3.29195658271721
C        16.61280244133712    1.18950038217693   -2.83733589721304
C        16.39528606480401    0.99372578347959   -1.48600025663491
C        15.89929169054839    3.72541748463726    4.22675861134158
C        15.69086203291692    4.68946803672418    3.24900246263914
C        15.97389874996176    6.01916230653493    3.50335848164331
C        16.45201973851220    6.39544194328358    4.74753458702052
C        16.62619929537468    5.44302985292461    5.73965791024325
C        16.34302924832165    4.11334920669377    5.48957052732628
C        16.57818828578054    1.00671702316437    4.92360324772716
C        16.18013531234254   -0.23315087296671    5.42561644692819
C        17.07057820017924   -1.01951346415428    6.13353729944357
C        18.37204601681670   -0.58549931555756    6.33444695705312
C        18.77680703962086    0.63910655762476    5.82854025735157
C        17.88847941258970    1.43420964771749    5.12539027612519
C        13.88437741171879    2.05488756407121    4.96355317645223
C        12.74048261274110    2.56116850950226    4.35003384735235
C        11.57769531202370    2.72532298436617    5.07882744518454
C        11.54986539269769    2.38970093614931    6.42356440172159
C        12.69217403336796    1.90616003454259    7.04020065970152
C        13.86327756495484    1.74544095633178    6.31984700213627
C        14.60339885835314   -1.19148340759545    2.37929828056540
C        13.54036498155251   -0.44275235817422    2.92539220877958
C        12.83392426189994    0.18745552729176    1.86216498158457
C        13.44771253587645   -0.20206590370038    0.64795705169794
C        14.54821678940809   -1.04005519852180    0.96402370413856
H        14.93267740402094    3.64991708725798   -4.42097339581744
H        15.15976968731144    5.26049259724997   -3.73890017159288
H        16.36086932177309    4.00973521756943   -3.43334586555977
H        12.64589365464468    2.95680227345211   -1.67885419177178
H        12.55506669798023    4.01692938163610   -3.09062930924463
H        13.21549660275249    2.39712817628781   -3.25882642587070
H        17.88719186682551   -1.33822288382656   -0.80094529046723
H        18.65494955066502   -3.65777998049708   -0.52124108505923
H        19.00240740691703   -4.58896761206612    1.73420074395892
H        18.58165579958007   -3.18896462595866    3.72549658371166
H        17.80637358147589   -0.86433924933975    3.45195754625613
H        19.90838952612720    0.19771152806579    2.37727273140965
H        21.54814462838703    1.72779480827804    3.37895428172394
H        21.05280622344602    4.13421621610829    3.56878568230759
H        18.92233846507641    5.03168644002910    2.70099943291345
H        17.28633729077919    3.49154744535370    1.63937846217176
H        19.51918295582615    1.64059629793496   -0.34515072989780
H        19.88501385505672    2.02629398074733   -2.74277253402376
H        18.03564600042526    1.71590282470829   -4.34674718028942
H        15.80308494245431    1.05327331030998   -3.53792609357092
H        15.40974816544071    0.72557610747398   -1.12675069499992
H        15.30585042257743    4.38673780362098    2.28746132175857
H        15.81930025415246    6.75695807442082    2.73133783240197
H        16.67695429341573    7.43120578914493    4.94869228204823
H        16.97736019224117    5.73811228589328    6.71676145917939
H        16.46346094869030    3.38057630428028    6.27462488876763
H        15.16623303710783   -0.57694603557896    5.27494478197456
H        16.74853422741086   -1.97077972246868    6.52998634441424
H        19.06623388439472   -1.19945647236911    6.88704897613759
H        19.78817438376580    0.98192454454167    5.98365789913190
H        18.20676145633058    2.39224694300550    4.74328189844372
H        12.77028445883980    2.83408675592266    3.30198681546227
H        10.69708039607067    3.12008606627613    4.59628055866062
H        10.64166197857940    2.51250848467967    6.99298097043303
H        12.67619150250115    1.65696096238439    8.09041251708061
H        14.75060491177724    1.37855830117352    6.81557956847794
H        15.21203425026060   -1.91418318346308    2.90549088610882
H        13.20968319614019   -0.45403593942387    3.95570108410677
H        11.90118398131630    0.72539416839819    1.95733043224723
H        13.06266489145781   -0.00302329357946   -0.34282340728156
H        15.13275991404763   -1.60943784715943    0.25205749713259

