57
CSD_code = WALCUI | q = 0 | S = 0 | Stoichiometry = C25H26Cl2N2OZn | MND = 4
Zn        4.59489111230961    9.93043069596936   15.74427777101675
O         3.98499956337880   10.83928102452499   17.42414267025726
Cl        6.74977277402056    9.91552010981753   16.36405433484829
N         4.72274481847405    9.72732423460159   19.64177743273554
N         4.25705645222511   11.73994265429302   14.77334658107025
Cl        3.39082605955049    8.09415599568577   15.62360836497183
C         4.72031702939717   11.83101857338501   17.71088886496571
C         4.99353297993632   12.88653285699803   16.77570491736981
C         5.66205530721988   14.02379667508874   17.19975556546855
H         5.83585080369706   14.81873209341672   16.48628669725996
C         6.15834852460584   14.17596457358383   18.49768563543094
C         6.00395832527825   13.12945480715351   19.37602077106635
H         6.42957293680133   13.19125015107043   20.36807867933095
C         5.31498429419563   11.95636886922426   19.01980396621881
C         6.88128307389986   15.43177538142710   18.87843874814301
H         7.12990027289048   15.43117401319560   19.93609096480109
H         6.26747701245105   16.30497883128601   18.66352515887310
H         7.80400290332812   15.52308060626803   18.30668186349387
C         4.62450813840408   12.79386034986677   15.38846461135637
H         4.70994448855735   13.73311350761959   14.82691306061084
C         5.32427026018654   10.84963307330015   19.89213938765504
H         5.89359676470771   10.92478616207502   20.81499875744423
C         3.89736435955208   11.83199168628969   13.37637120804311
H         4.35203993297983   12.73533608912086   12.93669602411312
C         4.39879447093757   10.60134183786330   12.62379766341101
H         5.47828824011084   10.50754009622954   12.73102049834898
H         4.15505888536076   10.69233456533705   11.56770697748878
H         3.92190368608481    9.70271049092928   13.01091483055603
C         2.38952709288168   11.94692058770864   13.25636514494602
C         1.83401563557493   12.93787669311890   12.45820961003634
H         2.47839083086546   13.63232685614184   11.93632509153803
C         0.46087450886390   13.03789575740895   12.31738189001902
H         0.04077964399385   13.80915129597457   11.68818398319716
C        -0.36984989692805   12.15290431030105   12.98242732219292
H        -1.44154510958938   12.23172603130077   12.87383434361956
C         0.17890777354425   11.16758544887940   13.78581981343332
H        -0.46284176486431   10.47359708956980   14.30754298161899
C         1.55156748963806   11.06109843332183   13.92149080998415
H         1.96806167244389   10.28729833672858   14.54827379146305
C         4.88193452129750    8.48463543952421   20.36149435085073
H         5.22709611226285    8.71785391666280   21.37690161299739
C         3.53623250264629    7.76621993715164   20.41892672044218
H         2.80994787011972    8.36462078004704   20.96483766506978
H         3.65201513874172    6.80941701538514   20.92028774771755
H         3.15738492479795    7.58725265459063   19.41619195837382
C         5.94681730271062    7.66292074833101   19.65539255636970
C         5.74633517652292    7.20791539206699   18.35854360810493
H         4.82159027362087    7.40701591529399   17.83839428381467
C         6.73978216089939    6.49629994976105   17.71048691200719
H         6.57396297744164    6.16051403019250   16.69834344391786
C         7.93839491870384    6.23204822602484   18.35002518115175
H         8.71646838200787    5.68302535785531   17.84074543979392
C         8.14113862455399    6.67972948105910   19.64414622452919
H         9.07438253949047    6.47788790636052   20.14988618058395
C         7.15160743735054    7.39808158410979   20.29204300989615
H         7.31836990646588    7.75183558544524   21.30082844061802
H         4.24280788336516    9.69901523410366   18.72747787536856

