100
CSD_code = WALCAN | q = 1 | S = 0 | Stoichiometry = C54H41O2P2Ru(1+) | MND = 7
Ru        0.24491276683007   10.52111611782604    1.22005044687767
P         1.64150145440117    8.70885950782068    1.87672983006809
P        -0.95832766785516   12.49496679903823    0.65680629490647
O        -2.28009077097109    8.90212707816001    1.35790877174424
O         0.94593238231692   10.06302362200435   -1.67543656649339
C        -1.31328857801924    9.51422651478232    1.32432480369485
C         0.68809319379064   10.24773658546019   -0.57841473878248
C         2.02868288767826   11.88072714293955    1.61094146289846
C         1.36939842255428   11.76556742613882    2.68968741444459
C         0.29235730885894   11.17333322125443    3.26788220396815
C        -0.22842798662798   11.15718611559443    4.49946917309540
C         3.49872844655794   12.34112437552351   -0.31055733842531
C         4.62197213305030   12.94664716071742   -0.83645175716288
C         5.44817141469615   13.70732033373530   -0.02569690495274
C         5.14479413604681   13.86142272302789    1.31848884842660
C         4.02397873097028   13.26177108956049    1.85244238085621
C         3.18284658640337   12.49118627319072    1.04033109492181
C         1.47636443265798   12.65462910186839    5.54325761702051
C         1.96515241717642   13.32523494273142    6.64552877669511
C         1.30750506541221   13.23523739442514    7.86310841714624
C         0.15831604173535   12.46815573291268    7.96955572812748
C        -0.33243131271542   11.79530737801726    6.86805835841085
C         0.31913824370373   11.87889544737028    5.63505034095644
C        -2.38980321250243   11.18193760008659   -1.37205524116753
C        -3.29128359188265   11.13825593298476   -2.42189379331330
C        -3.92564501171098   12.29554311155017   -2.84084221091848
C        -3.66075205423436   13.50162982424423   -2.20914809913365
C        -2.76399412734284   13.55183498678366   -1.15994750923974
C        -2.11933850951807   12.38937851347653   -0.73881800996908
C        -2.16833158394624   14.61042444310716    2.09499370431972
C        -3.03793285830457   15.10003937459562    3.05351875358653
C        -3.76616631311693   14.23131554405004    3.84929406981668
C        -3.63603186182507   12.86229604817764    3.67902540685530
C        -2.76743427629136   12.36639468400064    2.72597657875181
C        -2.01737669515221   13.23566041807378    1.93757939911404
C         0.55348945265372   13.91146036430451   -1.18922820909772
C         1.51900899180087   14.82402189337531   -1.57203436971496
C         2.13893793079508   15.62008144208866   -0.62233123040989
C         1.79562118906998   15.50216539516840    0.71493808185374
C         0.83457802652298   14.58904574532884    1.10770820853414
C         0.19583710770009   13.79932623528932    0.15229813079972
C         0.06428681762073    7.80879904578702    3.96971985630433
C        -0.19270144804436    7.13635904884772    5.14994835173741
C         0.84784787776379    6.55328296420768    5.85426068244380
C         2.14398833043638    6.63880879620786    5.37185272576261
C         2.40769967813378    7.30849580877575    4.19116660335816
C         1.36570021735119    7.90812972899617    3.48800421270215
C         3.86327967056061    9.88269206818744    3.07405239677141
C         5.13966601003678   10.41265110146189    3.07118801121376
C         5.91872510088871   10.34560437165451    1.92635374219643
C         5.41982631484237    9.75079691442807    0.77901247273826
C         4.14316091184770    9.21905418549232    0.77186404810766
C         3.36534552382227    9.26691323226914    1.92591681773557
C         0.60715919170913    7.03631585772564   -0.10404929602158
C         0.59414692287468    5.90021175408395   -0.89402623832269
C         1.62299813171183    4.97802704872871   -0.79882823886783
C         2.66584665942500    5.18966354802779    0.09021821274533
C         2.68372629902226    6.32076867320522    0.88347925311122
C         1.65573082182879    7.25651618264240    0.78274225481412
H        -1.12001835327650   10.57841957913144    4.70156189963640
H         2.85604895371802   11.74920625693696   -0.94631635444927
H         4.85416287473786   12.82478227998733   -1.88356404617799
H         6.32604188876786   14.17944510082800   -0.43893826863015
H         5.78740414155129   14.45379748070805    1.95233007267762
H         3.78539842097116   13.38243132699792    2.89919857313950
H         1.99302086165341   12.72626612451306    4.59285545120760
H         2.86171602278365   13.92165654122070    6.56015157720464
H         1.69046460702647   13.76084875519113    8.72420783963906
H        -0.35589134709913   12.39507063202794    8.91590276841842
H        -1.22852309548967   11.19750788588421    6.95488015587447
H        -1.89099756704274   10.27554969321953   -1.04576410224357
H        -3.49750918939149   10.19919846202783   -2.91240732531573
H        -4.62743149202753   12.25927558849942   -3.65961985099377
H        -4.15564420518923   14.40358411756747   -2.53553613391581
H        -2.55556609369202   14.49041156329136   -0.66556785446446
H        -1.60879448646190   15.29930221389584    1.47820256940419
H        -3.14810753578652   16.16684172176308    3.17661316590295
H        -4.43910881304674   14.62104905948960    4.59734774312095
H        -4.21385737681311   12.18332194035551    4.28762970919598
H        -2.66681013388236   11.29801140922851    2.58184494916496
H         0.07027828933955   13.28418326351657   -1.92711799730669
H         1.79041080321813   14.91203731968104   -2.61297432585897
H         2.89338347743920   16.33022264300059   -0.92348114062782
H         2.28276360941646   16.11906210120597    1.45482024862678
H         0.57804794471334   14.48440945961177    2.15451386254627
H        -0.74561915188695    8.26152133551178    3.41325216542141
H        -1.20466942934215    7.06349877766227    5.51881226876777
H         0.64937223188855    6.02944506222952    6.77650258023320
H         2.95489443417826    6.17906320245385    5.91627287197809
H         3.42261032214030    7.37114518135245    3.82530482617908
H         3.24809923107971    9.94169306339781    3.96367330093763
H         5.52744822631441   10.88120904555221    3.96318380997485
H         6.91407467680282   10.76217070402550    1.92774305498462
H         6.02467696188516    9.70543516613239   -0.11370199551525
H         3.74533626682362    8.76112870590371   -0.12458591134771
H        -0.19917151741824    7.75911622569010   -0.17549040214307
H        -0.21967630564725    5.73523745067280   -1.58353103119155
H         1.61273469419979    4.09319884110202   -1.41622467784154
H         3.46658527721661    4.46983440683395    0.16602484605653
H         3.49842649371496    6.48590634068676    1.57421692134024

