55
CSD_code = WALCES | q = 0 | S = 0 | Stoichiometry = C30H22S2Ti | MND = 12
Ti        0.22599387498722    1.43294094929624   14.69861483731956
S        -1.61189683913565    2.94862026457159   14.53324549186733
C        -0.95317703754079    4.44931401134288   15.17620341155984
C        -0.07203379058540    5.17123109281440   14.39343677133814
C         0.51855914981512    6.33980790671820   14.90689675579239
H         1.22302286318653    6.87278234765267   14.28465649395841
C         0.22508485418771    6.78104335938008   16.16600086813896
H         0.70708912634232    7.66180374794276   16.56485296511894
C        -0.74087080984439    6.11845740268691   16.95130526880968
C        -1.12435380885132    6.59486337978865   18.22210142278159
H        -0.63076597437072    7.47333791215717   18.61287660980368
C        -2.10831962998331    5.97315080747944   18.93848013611399
H        -2.39662734501608    6.34754782052948   19.90979279158494
C        -2.76840512173404    4.85625448220849   18.40599156410294
H        -3.56965243304360    4.39545941354268   18.96508042975361
C        -2.40606910072620    4.35779170848576   17.18511632385536
H        -2.93187384397753    3.51706880014683   16.75213783759666
C        -1.36943856191278    4.95305696839657   16.43908969630703
C         0.24109535151711    4.78742622034644   12.99821424808697
S         1.94361453829494    2.94390172519204   14.01503647583287
C         1.19183443400889    3.83157504653486   12.69360200528798
C         1.59933247925524    3.62871109560852   11.34642776491018
C         2.69552225844209    2.81230281537465   11.00400088939055
H         3.27209612864426    2.36608643899493   11.80349556064271
C         3.04953367196410    2.62375286849961    9.69654350797244
H         3.89673742401637    2.00169673636083    9.44711528505631
C         2.32080391561927    3.24180630123135    8.67007041896165
H         2.60416998727416    3.07304504452280    7.64150060227354
C         1.27541456817764    4.06871132724027    8.97240842982326
H         0.72707226586048    4.57128461804962    8.18831160502068
C         0.89769264696368    4.30074347512810   10.31119506273375
C        -0.13435741159925    5.19996897390082   10.65067595549972
H        -0.67181598044857    5.70065377155452    9.85848101585174
C        -0.42359000279840    5.46365251276413   11.95948983692822
H        -1.18088613785627    6.18795194116835   12.22299876047420
C         1.08616584602489   -0.00242461770906   16.40757641846432
H         1.47333212246140   -1.00540800193087   16.29050978786438
C        -0.24384136665415    0.33691752431875   16.73247818110518
H        -1.05321578642448   -0.35614402145556   16.92454986584811
C        -0.29269125033083    1.72665963042739   16.97141208479880
H        -1.13417112726975    2.26602112517221   17.38234060343857
C         0.99382084377051    2.25198429117519   16.75253960513676
H         1.30458185004324    3.27459792297728   16.93130969138000
C         1.84626946088208    1.17794201075839   16.39259651376167
H         2.91717492843424    1.24917710599539   16.24474525861726
C        -0.50178458744944   -0.73723219943834   14.00277746568296
H        -0.82589237277434   -1.55488635890324   14.63218269607398
C        -1.33703316971922    0.22346052784927   13.41073045471527
H        -2.41332724720931    0.28945772012094   13.51565962031019
C        -0.54818450360241    1.00730297729747   12.53152312516410
H        -0.92063395635596    1.76350537870822   11.85050702050599
C         0.77442506877489    0.53245985244251   12.59973372732975
H         1.58859904762189    0.83382495859262   11.95609088755726
C         0.81031084462133   -0.52907754810245   13.52854613298006
H         1.66705964602328   -1.16474156590354   13.71334375872006

