141
CSD_code = WALFIB | q = 0 | S = 0 | Stoichiometry = C56H72Cl4N4O4Zr | MND = 6
Zr       15.37818424168800   10.54002331431939   12.49167952309350
Cl       14.67059754476062   13.19778773603594   14.03058928164545
O        14.30712728038725   11.38595897445166   11.13441178102731
N        17.21975919154880   10.71553861822408   10.55683377854039
C        14.40895902529329   11.95749000351727    9.93761416250836
Cl       15.70962322286896   16.75835540800901   10.06908028999342
O        16.77595019518956   11.80468796994510   12.92941425587856
N        19.18761127417965   11.83540877081016   10.96614810478423
C        13.48623940774357   12.93064381124186    9.46976519850528
Cl       13.49496172392031    8.63399737679654   10.83001551292664
O        13.90954605912471   10.42965652304241   13.73144046995346
N        16.66782908780275    9.45423207947665   14.57171462834781
C        13.77315398749447   13.58730664433694    8.28657381602771
H        13.10311851325099   14.36077903324021    7.95579734161866
Cl       12.13572858891919    5.15656925396717   14.76773740888521
O        15.91651385927556    8.71478910078513   12.14157322294741
N        17.76247318312785    7.44969766563832   14.29725802920957
C        14.86790965653156   13.29469342944864    7.47873053348338
C        15.66174793279199   12.23305182843133    7.86895713841827
H        16.46934948810534   11.89031139399124    7.24004561313163
C        15.44729711780140   11.57092971722506    9.06958742404828
C        12.13256994764289   13.12848727050712   10.14503785725422
C        11.34674504648871   11.83091846489029    9.89805897219414
H        11.22802298386437   11.65912452877295    8.82984838881436
H        10.35990260806723   11.89302464092692   10.35179023763629
H        11.87641654794322   10.98386198252069   10.32451825938569
C        12.25559234105174   13.37140877063554   11.65007351333363
H        11.26456399545211   13.44794523821535   12.09280427800037
H        12.78816240734885   14.30014858640528   11.83642678083365
H        12.78601929402501   12.54948116880249   12.12485431421593
C        11.32893028428529   14.29604208940290    9.55987034115637
H        11.88098532038118   15.22994184576456    9.63929530044518
H        10.40281019674185   14.40434710033859   10.12113638202606
H        11.06425426605673   14.12061945762014    8.51999867712421
C        15.09930583304266   14.09146573383846    6.20436375871730
C        15.23636751236756   15.57947116618484    6.55308956613589
H        14.34928579338480   15.95318501055504    7.05534685494442
H        15.38840679552215   16.16526586591969    5.64865233468233
H        16.08647586138318   15.73739000326274    7.21246832713874
C        13.90550054431767   13.88978702315145    5.26038012900320
H        12.98584935197422   14.25659650715417    5.70693985023708
H        13.77762728538551   12.83274694830525    5.03678601021288
H        14.06868927308591   14.42470786689179    4.32689628868213
C        16.36966716082301   13.65900566874001    5.46631792141687
H        16.51161093531536   14.28652559967018    4.58859148475566
H        16.29665455965214   12.62692424568106    5.13134206866006
H        17.24586245545053   13.76726726853188    6.10191055325216
C        16.33878685538557   10.40871647207907    9.42289366997511
H        16.93963626461566   10.15556453195807    8.53026900462591
H        15.74301561558860    9.52618809872138    9.69553687545734
C        18.30885794767360    9.72038914123520   10.69980896895360
H        18.21051865636281    8.92297636617293    9.95742518973306
H        18.26143353182869    9.26908463944074   11.69405485733637
C        19.59833483400190   10.52554773456244   10.50020592942563
H        19.84052040558450   10.55936652936972    9.41547388101563
C        20.84262162855264   10.09440615605711   11.25943365667755
H        21.15870599464341    9.09895324529233   10.94322467117582
H        20.61556776402850   10.07964768931061   12.32448343627154
C        21.94708728649837   11.12053768140758   11.00647032267514
H        22.84261669233617   10.85369554018709   11.56980997265586
H        22.20721671566837   11.12654402275632    9.94501516490291
C        21.45993870370545   12.50726958514155   11.42225560393749
H        22.21927919387074   13.25905162926464   11.20312729714985
H        21.26484964221162   12.51413580786661   12.49533941313439
C        20.16577424179566   12.85949149167065   10.69263426146698
H        19.77338785218636   13.81595950186355   11.04653107615587
H        20.36152768944475   12.94647886602930    9.60567817738595
C        17.89439677439352   12.01840599374823   10.35025598330527
H        18.01104900835739   12.22104963284410    9.25822452499984
C        17.09292925141607   13.13078981880334   10.96319670093786
C        16.84141100069603   14.32759964104752   10.31221182350419
H        17.28880896912931   14.51976460907271    9.34916474167444
C        15.99280742654494   15.26431470881240   10.87829916416480
C        15.31442530513246   15.00063552888494   12.06176532138969
H        14.60721826780942   15.70676497596836   12.46595117898381
C        15.56580017991169   13.80042491092789   12.69052613210749
C        16.51284564969463   12.87239431912847   12.21886936373443
C        13.58666157210131    9.91691914972637   14.91556814788106
C        12.25075687975349    9.59682366376811   15.27630516449928
C        12.03980181029909    8.91168911721256   16.45930825539725
H        11.03485254133957    8.62207769420574   16.71001627227063
C        13.04742821885081    8.59047189419613   17.36392796226570
C        14.31516417236300    9.05735025368537   17.07319065913878
H        15.12310638320414    8.92926107801486   17.77750303011275
C        14.59136112809031    9.70753664027321   15.87867221326978
C        11.06518809014275   10.14011169243067   14.48479956395955
C        11.16717220560655    9.83464191027286   12.98965038154085
H        12.09330367830351   10.23427298471977   12.58347835530592
H        10.33098536198319   10.29001641573085   12.46296610348634
H        11.13425916447884    8.76106319479807   12.82430901485421
C        11.07952708334041   11.66199716561148   14.69911848581126
H        10.98155554445298   11.89478719440219   15.75784797684223
H        10.25562634758059   12.12832691822661   14.16313355090078
H        12.01443694346045   12.08327480625736   14.34075373273306
C         9.71468522644415    9.59911680379825   14.96928317858172
H         9.68365080471787    8.51341555074464   14.90984918175689
H         8.92632367958522    9.99326723605827   14.33087432244387
H         9.49913636469521    9.91106190775750   15.98829914658749
C        12.70723514809771    7.81836389937381   18.62907216756593
C        11.73081717846838    8.64588503142150   19.47687965503132
H        12.16915332078088    9.61159978261219   19.71964852896129
H        11.50262291237671    8.12516177546542   20.40475551987209
H        10.79951504102467    8.81906347763266   18.94543085886284
C        12.05656750749179    6.48148979624314   18.24970833501122
H        12.74243057196087    5.88079095982801   17.65716862489487
H        11.15286656863976    6.63065099917207   17.66669152750505
H        11.79544430001822    5.92256860324718   19.14620454898786
C        13.94361216092978    7.51793971724914   19.48152320832800
H        13.65281536341687    6.92791891144029   20.34850063261795
H        14.40490675975078    8.43500654987970   19.84056152790597
H        14.67700354289430    6.94636498941761   18.91683420274406
C        15.99122849903678   10.20836764165883   15.63455516958712
H        16.55479536208134   10.12262741850845   16.58161050489491
H        15.98253685163730   11.26629892370771   15.33620161477318
C        18.12721905823314    9.71245039238007   14.54981240367263
H        18.41379597036346   10.10060184118604   13.56913970181654
H        18.40504806168973   10.45342207599336   15.30515155452917
C        18.76678504022330    8.34780241633300   14.83222242095398
H        18.86081633967224    8.21191715819408   15.93183058311532
C        20.10848789551138    8.03392233597901   14.19046712959022
H        20.87828800479588    8.71337207771734   14.56004067947117
H        20.01542044022992    8.14674428681011   13.11127583497714
C        20.47002363720281    6.58200873483195   14.50348168025638
H        21.41386989093503    6.31913802896312   14.02330434005926
H        20.59604079308890    6.45885142589529   15.58206363676455
C        19.35610010214438    5.66094239179543   14.00947718290810
H        19.27867143514890    5.73861171361376   12.92430526522937
H        19.57636239955665    4.62440376945008   14.26805806066246
C        18.01722660941760    6.06738732429230   14.62061594946057
H        17.20701239834024    5.46086396405119   14.20865016223573
H        18.04402383283270    5.91061491489289   15.71699377417092
C        16.52396535531297    7.99707776426450   14.79877070620950
H        16.42205074764609    7.78726950018600   15.89093704773380
C        15.30838190003885    7.46962784949145   14.09182093241227
C        14.40364488310748    6.60557209945409   14.68703559140835
H        14.59590629201882    6.22580601410133   15.67868093524033
C        13.23849825564510    6.25270730819282   14.02668249324222
C        12.90857690445946    6.81121836065592   12.79806392015519
H        11.97142464196681    6.58201420453345   12.31709632168292
C        13.81330482307166    7.67827754831241   12.22483388899675
C        15.06489146603532    7.96884517426658   12.79898414577088

