141
CSD_code = WALFUN | q = 0 | S = 0 | Stoichiometry = C56H72I4N4O4Zr | MND = 6
I         2.06569718162099   10.92139542561809    2.54225657681274
Zr        5.03483366977144   13.51123502196421    0.21963503945623
O         4.63519583909309   12.17083019268792    1.58205811575273
N         6.81610828338290   11.95543519880517   -0.46166789184346
C         4.88180587635995   10.88895639074560    1.64413469788876
I         5.73529836201210    6.08842464225317    2.14962760915068
O         4.27886496987524   12.74391067538049   -1.37847574705121
N         8.50723731776156   10.82437126453725    0.64799462329123
C         3.89800354979165   10.00785663841659    2.10519199345319
I         6.56281034983520   13.79199292739659    3.81004174025331
O         6.68383238748292   14.33953423827680    0.86353799492528
N         5.28309577497605   15.38378270989990   -1.31200933205686
C         4.11307526662891    8.65909314897945    2.26265823315085
H         3.33737566934565    8.02399953839129    2.66133397285869
I         5.35606921193693   19.74680884782551    3.58474705993255
O         3.66646699125556   14.62114990025917    1.00393742308607
N         7.44488119746243   16.10597865647400   -1.39160369064043
C         5.34689706089980    8.15118207275131    1.89689786107091
C         6.34160077129992    8.96947115420741    1.39030901554150
H         7.28277851053555    8.55042026063591    1.07187610275862
C         6.12937760261908   10.33210375859898    1.28919374773157
C         7.16162946685923   11.32335307128473    0.84321425278193
H         7.17705006412589   12.14192309100514    1.59509337025680
C         9.24857780533087   10.39070284656607    1.81334108253125
H         8.69723925335662    9.61133184535219    2.33961831687946
H         9.40152546603791   11.22659470191595    2.51990547887582
C        10.59569285894625    9.85563172447702    1.32700178653735
H        10.41428360789955    8.99695633240074    0.67811530479834
H        11.18604360927904    9.52163991980980    2.18066736191477
C        11.35873738986444   10.92552416425481    0.54621844497239
H        11.63728452082484   11.73640781499117    1.22342360013294
H        12.27577461017044   10.50223711591465    0.13375729843840
C        10.48574509412666   11.48946366259793   -0.57676024411678
H        10.27658450071377   10.70864455829044   -1.31028381593102
H        10.99416053190984   12.31472974156524   -1.07868231235180
C         9.17804499989288   11.96259852168409    0.04022152490088
H         9.40652781897650   12.72301633439782    0.81412801101519
C         8.11173886383680   12.53228293541029   -0.90805276589095
H         8.07692215911536   13.62413200583644   -0.83913048102664
H         8.32618893956542   12.23075831108565   -1.93723816000349
C         6.37630708406242   10.92591454868899   -1.42960564710725
H         7.04095688693483   10.05249667713385   -1.36862541167892
H         6.47641965693515   11.36364342980855   -2.43388474581959
C         4.93918729429072   10.48033599559173   -1.30031127423055
C         3.92339370857320   11.45438068475844   -1.35341159779919
C         2.58117141991122   11.02077201475327   -1.47707742091934
C         2.32862187366356    9.65959460729033   -1.46725488976305
H         1.30662347333504    9.33072137668993   -1.53392555079081
C         3.32425126445018    8.68722661788186   -1.41748583084744
C         4.63484870526023    9.12674377039470   -1.34681490252651
H         5.45464105307984    8.42576900781737   -1.35035586531977
C         1.47027301966563   12.02899032015113   -1.75524521706062
C         1.35241077797930   13.03073038635914   -0.59896493858298
H         0.79856182985771   12.57381792221157    0.21891500080781
H         0.80880410536608   13.92008638180381   -0.91754656516635
H         2.33760192830292   13.32645093354987   -0.22724789200694
C         1.82104727252596   12.74952458956758   -3.06799219636848
H         2.80306555704968   13.21096037233560   -3.00250042798454
H         1.08159115030173   13.51734780495904   -3.28872591694590
H         1.83572741130337   12.03583139313513   -3.89006212026433
C         0.09355100584179   11.38117685387373   -1.94114192696296
H         0.08379079634121   10.70457594841650   -2.79268296641765
H        -0.64010932450043   12.16363972519254   -2.12497748500111
H        -0.21210359328638   10.84189695910072   -1.04783985216863
C         2.93605026560097    7.21924002850687   -1.51757295048493
C         4.15263927617148    6.30135886781528   -1.65635630134711
H         4.71779563155089    6.53973496551865   -2.55475765854388
H         3.82196712860035    5.26742873359000   -1.72704389326803
H         4.80832753539605    6.37864324781610   -0.79444101788059
C         2.15511259297097    6.81232863821629   -0.26213777427731
H         2.80055626733613    6.85883872280356    0.61037487408818
H         1.78815995550548    5.79302258684876   -0.36117375839163
H         1.30694269309498    7.47117699020736   -0.09508842302951
C         2.05435812093896    7.01091671641425   -2.75903779912737
H         1.09693169167481    7.51381187367411   -2.66035079848703
H         1.86241607501325    5.94987041814200   -2.90377729356034
H         2.55480335001564    7.39527681856754   -3.64547133543033
C         6.37299895377059   15.48487860123938    1.40686209284674
C         6.28688547727884   15.60902355021366    2.79835284152679
C         6.01524558073977   16.79687682891450    3.43281472090115
H         5.96295914136128   16.85213608427900    4.50948575447339
C         5.81001822970380   17.91803617041833    2.64511037237878
C         5.86952987605559   17.85017835668257    1.26601596915166
H         5.68640714522669   18.73111518739883    0.66935254644524
C         6.13786706371800   16.64371020178250    0.64005642093134
C         6.15643702331573   16.49332067551687   -0.85373927297835
H         5.81480507503355   17.45470549861470   -1.31175697791058
C         8.51825164863582   17.06356917293861   -1.25994885357412
H         8.68796902920260   17.25032836021452   -0.19642961574230
H         8.25981505007319   18.02488435337083   -1.74239575540196
C         9.76928209145881   16.47783678727057   -1.91054820571477
H        10.04418971336169   15.56490171853537   -1.37948896030790
H        10.59150150359138   17.18876584866679   -1.82379169555492
C         9.50340360497469   16.15223047691324   -3.37924673603228
H         9.28047566219470   17.07500850115770   -3.92023212836107
H        10.39022859902520   15.70542999355911   -3.83029787196363
C         8.31780912482360   15.19327720346424   -3.49545762488822
H         8.57793956793153   14.24040023792675   -3.03707214072692
H         8.06737425603471   15.01822103915145   -4.54313695032938
C         7.12409361567073   15.80359821736450   -2.77659093503377
H         6.84001503530941   16.73519672592530   -3.31115124804701
C         5.87933096971217   14.92679389871018   -2.59530742044908
H         6.15048583472354   13.86763741786479   -2.52237236383503
H         5.17327245594558   15.04935266072027   -3.42273242815808
C         3.90257578259538   15.86484579129013   -1.49067382876051
H         3.85728972139328   16.55881567214422   -2.34895609912478
H         3.27201092568778   14.99296524656892   -1.71148872678172
C         3.37576738602536   16.58030877986716   -0.27384581087788
C         3.21361055131424   15.86640355477800    0.93106007553727
C         2.54833558824266   16.50842769747704    2.00471440770810
C         2.22713935458473   17.85145161473487    1.86626625507909
H         1.75754281148944   18.34688860470721    2.69532752999267
C         2.45626221592144   18.58751323014291    0.70988211717303
C         2.99981572326448   17.90863147432549   -0.36994278026652
H         3.12930795337008   18.41017784149120   -1.31945805598205
C         2.03719143416453   15.71176215304682    3.20332996948119
C         3.11404467378619   14.82949196669189    3.84000674467835
H         2.66910582398514   14.21744678717970    4.62267955564550
H         3.88639313353171   15.44912225115064    4.29062459237623
H         3.55380965763139   14.16295714234727    3.09840947556553
C         0.91858591594062   14.80726278634947    2.66499356065553
H         1.32740212175268   14.11673539249428    1.93382441669375
H         0.14070124517307   15.40181935337230    2.18965565946634
H         0.47494207418594   14.22900774497970    3.47250451465770
C         1.45842229535582   16.59921961540674    4.31137456148680
H         0.56964812847801   17.12872097564228    3.97712526129049
H         2.19274721482756   17.31988365842477    4.66582130043042
H         1.17086659943009   15.97093787248766    5.15175168699497
C         2.06060668102853   20.04955516536630    0.56161076741682
C         3.27192064814025   20.87412287918551    0.10499433761129
H         3.67504424544240   20.50673194000544   -0.83525187439387
H         4.05576456059575   20.83872933508098    0.85776636141955
H         2.98435740219826   21.91395649675999   -0.03476543598947
C         0.94660197263993   20.14795575197159   -0.49155045599681
H         0.09304505709476   19.54399355491053   -0.19160132139936
H         1.28740411698362   19.79582354525179   -1.46164989929954
H         0.62010604220086   21.18036720101875   -0.59780334978962
C         1.54123991942069   20.65966402022651    1.86562983086986
H         1.31926972939810   21.71314118329861    1.70830468122196
H         2.28547609049953   20.58875617789851    2.65474266500964
H         0.62620152779414   20.17075348038244    2.19040034691844

