28
CSD_code = WALGIB | q = 0 | S = 0 | Stoichiometry = C10H10Cl3NO3W | MND = 6
W         8.39826278587690    6.89630875348721    2.69853012847790
Cl       10.32953133063752    7.06651848419072    1.40737539892918
Cl        6.42398865811960    6.03335150637055    3.69280268317400
Cl        7.18842734765381    8.11199819489032    1.22926056799796
O         8.02078711391468    5.31873244764241    1.45474939027849
O         9.30243092413228    5.46328809400448    3.69086066084672
O         8.65447595994426    8.12779155302648    3.77736137308482
N         7.03333233738427    3.34525130037821    0.93157708555526
C         6.26395646207604    3.78049399848093   -0.16625136096909
C         5.96364521941932    2.85009926969076   -1.15786764166221
C         5.20743908805762    3.22566020382490   -2.25159618335753
C         4.74306519041856    4.52642650253780   -2.36157605222210
C         5.02497791756335    5.44452631749521   -1.36417621272572
C         5.77776593305238    5.07933550748299   -0.26208977598570
C         7.82233523987072    4.09136531820537    1.72297397588747
C         8.45495452415460    3.45213495218673    2.83866700046563
C         9.18293476120586    4.16840363695446    3.75800040246567
C         9.86860715449738    3.50576402516969    4.91468413487136
H         7.00014155872633    2.35178850997437    1.11730040639801
H         6.32895854997127    1.83685413290978   -1.07118358682960
H         4.98278155504101    2.50109555004471   -3.01977459494219
H         4.15763072276213    4.81940444209796   -3.21934345941118
H         4.65767066694777    6.45604952824993   -1.43400940676728
H         5.96999929103344    5.80429941238313    0.51703398087063
H         8.33471461494870    2.38969648361442    2.96608918503792
H         9.77789308509527    2.42608399097005    4.87289883802696
H        10.91928429573412    3.79244812662555    4.91711921893408
H         9.42960771176076    3.87712975711217    5.84028384357549

