75
CSD_code = WALJOL | q = 0 | S = 0 | Stoichiometry = C20H42N8NiO2P2 | MND = 4
Ni        1.15111980972696   13.62645563698069    8.11466761011668
P         2.55798416758126   12.49867418916880    9.56263373093683
O         2.48436068272761   15.11566027877911    5.97695459531795
N         4.84359249985636   10.62083849261011   11.32991878227091
C         4.00589951550404    9.53325291447799   10.89667876173175
H         3.37552628747661    9.24623877806179   11.74092610798234
H         4.65171805687641    8.67582655982285   10.65619492779945
P         0.16403825560783   15.45459884686631    9.06425956204348
O        -1.31022406248386   12.12514908631051    7.63085329304810
N         2.17504181535088   10.87056783373122    9.83460227514087
C         3.12491627285243    9.79637463989286    9.65617278653685
H         3.78091497413162   10.01857753880171    8.81307866429360
H         2.57790342954427    8.87852706790518    9.41914469538858
N         2.87094855249591   13.00208110240234   11.14873546591172
C         0.80149377928144   10.47688063321360   10.03112152742426
H         0.67833698116756    9.90171004743947   10.95574835205725
H         0.43065140048693    9.86809961623402    9.19789316604337
H         0.19064347486461   11.37625345350283   10.10473385493653
N         4.12011988343673   12.35164479500917    8.92998258917292
C         4.38879739797072   11.44364731538477   12.41929033222428
H         5.13600135714452   12.22248221788675   12.58351026344583
H         4.34919227683967   10.82306300356707   13.32753357528915
N        -1.51883193649896   18.14334293041619   10.36040764743907
C         2.99414437412835   12.08254469920615   12.25576018838843
H         2.26739123548744   11.27699287129365   12.13258309293229
H         2.75070391857772   12.61462385910489   13.18182447996454
N        -0.24153275599351   15.41500818301411   10.70240524776003
C         2.92328299635312   14.40854708231154   11.45530038741245
H         3.94706325074519   14.77909754298347   11.59312053705910
H         2.36159003173430   14.63218943789810   12.36754867759799
H         2.46557972868887   14.95196631359484   10.62773855549752
N         0.95931418629025   16.94891324074643    8.94873432702056
C         5.77449588617539   11.19010124600153   10.39105287928295
H         5.98398397785670   10.43528354276986    9.63077379533644
H         6.71544693607451   11.40236916069605   10.92033528586823
N        -1.33902055262900   15.81819969652844    8.37760785853648
C         5.32144599186968   12.49993693713843    9.71350327666293
H         5.15970338683955   13.24796717694067   10.49139091639402
H         6.12717014186383   12.85995744288556    9.06500965294480
C         4.30110785314194   12.19733630281269    7.50648213760159
H         4.91011829899611   11.31761657384036    7.27160242262219
H         4.78918399136382   13.07534418370565    7.06574968997398
H         3.31983809542074   12.07189710006503    7.04384338270477
C        -1.22443825188755   17.50765171993081   11.61682749795150
H        -2.12694193515986   16.99075510831277   11.94873656166155
H        -0.99349610353384   18.28876251279101   12.35651930606652
C        -0.03754207629435   16.52263857000248   11.60078220424652
H         0.85894600305450   17.06997034446707   11.29801472035417
H         0.12100888782098   16.14014151002386   12.61429994154759
C        -0.64469828494179   14.15991862381418   11.28484656911226
H        -0.69252855964628   13.41784147970901   10.48585275062207
H        -1.63197717492257   14.22642660611806   11.75551904092990
H         0.07106550019690   13.81385781033491   12.03878652457427
C        -0.46559291019891   18.87198607198556    9.70459974044165
H         0.26167670586151   19.16216506597953   10.46540323168538
H        -0.89506458646532   19.79384520439404    9.28395233035675
C         0.25251891842904   18.15001967418225    8.54830352255036
H        -0.49165884276196   17.90864084628507    7.78503674620975
H         0.96961810888066   18.84714937879210    8.10614448334090
C         2.39701442895562   16.99103642151896    8.80157544044298
H         2.86621653373108   17.54611418494364    9.62212205576572
H         2.68945329570033   17.46045307863017    7.85683507644468
H         2.78671625156759   15.97017955721987    8.80421185596206
C        -2.59844073292427   17.63092888771815    9.55840414672063
H        -2.66185939489255   18.24797470568814    8.65980452329926
H        -3.53634610489856   17.75912429995535   10.11869469462706
C        -2.51057675532761   16.14248992478229    9.15922409508385
H        -2.52314548645671   15.54343138002673   10.07195116219177
H        -3.40193882452657   15.88521736207811    8.57902635560083
C        -1.54648104877334   15.57724649564623    6.96905854854934
H        -1.84946929213007   16.48907150557521    6.44226035179504
H        -2.31436627040371   14.81408025437493    6.80077148515845
H        -0.60766000341033   15.22365175299632    6.53537242468190
C         2.08609419898306   14.41483962984590    6.79589804938955
C        -0.26756203859092   12.58345045988449    7.78115520451266

