62
CSD_code = WALKOL | q = 0 | S = 0 | Stoichiometry = C28H26FN3NiO3 | MND = 4
Ni        3.64890831912080    6.67546494185220   10.13356975456971
F        -0.42829317888100    4.07451769675533    7.49884724798978
O         3.31996955561421    8.08207111892050   11.31407113878821
O         2.86087221170863    8.52183544398264   13.44092118767721
O         5.24648522652776    4.81801220579393    7.10182127586765
N         3.20045913567284    5.56600300145458   11.53119477567367
N         3.96587346189121    5.26206704517691    8.97292038331405
N         4.27309848647916    7.90006988777244    8.70006891533567
C         3.14152782957043    7.76312130799591   12.54041850420677
C         3.36419663046894    6.24444687051944   12.80960217041865
H         2.66118671900591    5.87805301177590   13.56513846379949
C         2.78704637040594    4.34625162419368   11.46954323264316
C         2.66868779371697    3.62096953791077   10.22221145612279
C         3.28442757127387    4.06343909383271    9.01987139889277
C         3.11630872685690    3.26030717089872    7.87920229857969
H         3.57923596704969    3.56661109762988    6.95717398555999
C         2.37367221345878    2.10412390022930    7.90539629975941
H         2.25722321666664    1.52951503215580    6.99880336197882
C         1.76681315664849    1.67905093909888    9.08122385644618
H         1.17651623107856    0.77647574428518    9.10018794060450
C         1.92470652743253    2.43091798490873   10.21896994890740
H         1.44827230779324    2.11393195006262   11.13457541818252
C         4.78737501438303    5.57453554581254    7.94034295636084
C         5.19063764695953    7.05213871984624    7.90957569614394
H         5.19357715948705    7.36701587488943    6.85702337085334
C         6.59437477704685    7.25999382299714    8.52256839957584
H         7.01853842571535    6.31836557243264    8.86898329389776
H         7.27230526410284    7.67865630167382    7.77915344120482
C         6.35457294475233    8.24931629558635    9.66506545736294
H         6.10088001543637    7.71198036303602   10.58703720185476
H         7.20651152508535    8.89774572583599    9.85519730870609
C         5.12052916105585    8.99813595870090    9.18808356015691
H         4.61507696322433    9.54958705384646    9.98044571562937
H         5.37063611135232    9.67447477052025    8.35970760159850
C         3.12564011746871    8.39208632113208    7.91868883788332
H         3.46544796034236    8.76793099326699    6.94377105993517
H         2.67729289406919    9.21474551489040    8.48254290428723
C         2.11605407607171    7.28630071701656    7.74858265370618
C         1.31159798003519    6.93999135802812    8.83958687448915
H         1.30711238219862    7.56514671330165    9.72954795964263
C         0.44872148302160    5.85909229448836    8.75726146005437
H        -0.18454880810880    5.57817823903408    9.58380634826503
C         0.40169634105288    5.13292133432700    7.57985863968579
C         1.16974532771649    5.46941362621057    6.48145107689236
H         1.09888918253063    4.88543667032732    5.57807318366866
C         2.03169238483238    6.54884684315958    6.57603240462210
H         2.64690773959970    6.80902997602169    5.72757552975726
C         4.79939313518572    6.06591335997196   13.31132344652324
H         4.97845508211052    5.03259506363856   13.60385623959594
H         4.96509627055041    6.71566251177721   14.16688049607411
H         5.50017533909772    6.33464592720702   12.51774048322615
C         2.43243080211579    3.60524292158126   12.71083359853453
C         1.20941530633540    3.81533413538625   13.33944095926485
H         0.50453191138242    4.51658602958360   12.91650231767755
C         0.89793645076554    3.12204353103680   14.49534923407694
H        -0.05322885630939    3.28778935921636   14.97826992721404
C         1.80322576011991    2.22161054413940   15.03218012715231
H         1.55935796250200    1.68539068047492   15.93674504811442
C         3.01972488885395    2.00809129969490   14.40643880036663
H         3.72606202770402    1.30399931813991   14.82005233168396
C         3.33488975155261    2.69447693596975   13.24688973616813
H         4.27867561904081    2.52419516860109   12.74950130279612

