38
CSD_code = WALLEB | q = 0 | S = 0 | Stoichiometry = C8H19B9CoN | MND = 10
Co        7.70470882754530    1.33618347094262    2.88253137534754
N         7.20382344527664   -0.07784123859657    4.41464267150556
C         8.72220124491785    2.90422573911398    3.68939838219858
C         9.67087841450025    1.84544698265103    3.02852726693090
C         6.15249218924662    0.73989467164021    4.17283345707991
H         5.70032435181380    1.30069306443820    4.97529400467427
C         5.70845027592502    0.62881157448195    2.84229260557399
H         4.83425984850515    1.08314757413403    2.41043156388910
C         6.56128476840550   -0.32625893254668    2.23901162431967
H         6.46932922306124   -0.74822204534815    1.25381360458812
C         7.45665324661669   -0.72055042830294    3.25032835107889
H         8.20087048190145   -1.49973209146452    3.20645123129666
C         8.54166008446734    2.88956270542945    5.20061025264057
H         8.30958131099384    1.89717463552814    5.58476364480214
H         7.72792561808874    3.55583156496294    5.48125782989309
H         9.44230296074479    3.23693799595358    5.70711278685705
C        10.38198285670126    0.83649757219103    3.91902841309583
H        11.14938232200194    1.31915369488320    4.52437206957895
H        10.87174255428261    0.08350429143671    3.30427170385444
H         9.70144576715600    0.32380929213349    4.59746455053716
B         7.45756989080090    3.34474967448250    2.64920086068025
H         6.42341475970800    3.66816642839804    3.11530581295689
B         8.83468605925003    4.43070757012443    2.90644218187446
H         8.65786161373563    5.39085710154494    3.56064819629719
B        10.26536003137648    3.47374891567817    3.13209134989593
H        11.07477222420685    3.68398818180214    3.95728588010833
B         9.16146712682536    1.44254670294103    1.46230370563067
H         9.38655647628231    0.36023618081091    1.05093885830844
B         7.72231866647252    2.44089119528448    1.13715706822221
H         6.85082926060471    2.10924749662436    0.41805914098666
B         8.21969306072753    4.13738520452173    1.26903764689448
H         7.65491596192904    4.96211893241692    0.64977748531123
B         9.97298817660956    4.19704864251675    1.55410345685489
H        10.65486654764002    5.06267111118317    1.14606080760796
B        10.54908310379042    2.51707857523543    1.71175541166794
H        11.62021251042851    2.08419384499563    1.49627293032311
B         9.30932361976612    2.92102351509068    0.50987911813693
H         9.51618111769399    2.88427063268696   -0.64705730149991

