62
CSD_code = WALLOK | q = 0 | S = 0 | Stoichiometry = C17H33B9P2Pt | MND = 6
Pt        1.12039452488669    3.24598824261706    1.71100181592714
P         0.31749375157818    4.59800730056253   -0.20411550529867
P        -0.35517301672138    4.12235971313384    3.24404566600201
C         0.12236899542531    3.68606562390655   -1.79010936227601
C        -1.18036114627407    5.68464955853588   -0.33316805929506
C         1.60302721531623    5.84441517377317   -0.57270640482871
C         1.73133743757270    6.49974712011577   -1.79096718894562
C         2.73019654157114    7.43949083471446   -1.97177271649742
C         3.60431418829597    7.73796581159170   -0.93918976605545
C         3.47880722069676    7.09328859416964    0.28013319976637
C         2.48273561457157    6.15186680132922    0.45938004240630
C        -0.52815045544877    3.53604670515775    4.97801230468356
C        -0.01231376453993    5.90441883319745    3.56881584560946
C        -2.11112150411869    4.11878675164654    2.72347566777822
C        -2.47194662709619    3.22504574050539    1.72178761619443
C        -3.77999034411042    3.14608643055557    1.27995991892819
C        -4.74394301591096    3.97230618037314    1.83366307275594
C        -4.39454905032507    4.86591463272378    2.83280366420664
C        -3.08720015724787    4.93591946418995    3.28006501321799
B         3.74156839865945    1.07838841515769    2.42058595487275
B         3.92946738391913    1.43717239437679    0.72426283789427
B         3.39268414521027    2.69761702027575    1.82215245383236
B         2.31584543237597    1.93570011708169    3.08608867221552
B         2.24800610878631    0.17266969027303    2.73785269335851
B         3.06720250175201   -0.03959321342222    1.13549066299730
C         2.63133550065371    2.52535761688550    0.39119801534955
B         0.82420900462659    1.06715597942322    2.54545909129370
B         1.30646050038434    0.03404652448221    1.19820541604064
B         2.37152987981823    1.02568644846986   -0.05732363577660
H         1.02177330425143    3.11006362371874   -1.99377672242974
H        -0.08447224541994    4.35568959621240   -2.62274144329627
H        -0.71151608852022    2.99337558667831   -1.68121449369007
H        -1.21206244535018    6.37847816543878    0.50429801901743
H        -2.07840058448229    5.07092744417319   -0.30201165673270
H        -1.15971299391719    6.25218851595170   -1.26219686080620
H         1.05884966595343    6.27781193373451   -2.60741528477872
H         2.82938735274159    7.93994019430249   -2.92430755585951
H         4.38468321870403    8.46947323052384   -1.08826334469010
H         4.16121657254860    7.31856748290647    1.08612765919408
H         2.38860426871576    5.62382773275866    1.40351858367091
H        -1.26354001107301    4.13277249367381    5.51598762999241
H         0.43934349998110    3.61067769108421    5.46913528977038
H        -0.83431742140748    2.49341049029652    4.98091196938098
H        -0.04060120286729    6.46645364966075    2.63725240627617
H         0.99286540081949    5.97405659304012    3.98235826338549
H        -0.71405301280286    6.33866316840024    4.27781036120247
H        -1.70786087278085    2.58919385050814    1.28980432111279
H        -4.04940707409521    2.44398378968387    0.50434378311283
H        -5.76605427818583    3.91989781063976    1.48917130724040
H        -5.14593216490515    5.50946511752863    3.26696586859264
H        -2.83333466263687    5.63308805807949    4.06547570231684
H         4.67905070290393    0.86068725860554    3.10586890630349
H         4.90899529254827    1.55298617304118    0.07960179870811
H         4.03076739894030    3.67416310881908    2.04125287899917
H         2.33380987422695    2.36183898363298    4.19498517845035
H         2.25277888561795   -0.64367382653889    3.59174968110279
H         3.51398247062141   -1.10016350652871    0.86723325194371
H         2.82567366836018    3.27002308258777   -0.39128077107373
H        -0.18872767458702    1.01307994515321    3.15435784535909
H         0.67816217439002   -0.90257290569665    0.84084090574527
H         2.19098614367792    0.79033123839150   -1.20501500448338
H         0.50642757445991    1.03202372353367    1.21488454055579

