51
CSD_code = WALMUU | q = 0 | S = 0 | Stoichiometry = C24H17FN3O5V | MND = 6
V         3.27675154054735    3.05706237993082    0.10742423366569
F         5.34668529043206    2.01892857695716   -6.21826907776204
O         2.79481641693030    2.60167798247288   -1.46771847434937
O         3.85741993679763    2.58643392305567    1.84971860733045
O         7.54006471258370    1.27895976866213    6.86397274391524
O         1.76647794170480    3.48126654183164    0.80207106088774
O         4.09635123473866    4.32994975236687   -0.08255135153907
N         4.89602792981127    1.93282879054180   -0.24529892724884
N         5.59050782252337    1.58410042683651    0.83156749374197
N         2.21237768912594    0.87208722629817    0.60756118732281
C         4.74682060323449    2.03530095186547   -2.63922440056955
C         3.39826781054203    2.49107577128681   -2.61064739440421
C         2.74806193790905    2.77155683057309   -3.82325835362997
H         1.72641095952512    3.11988565410466   -3.78687706065750
C         3.40115751477340    2.62141415739549   -5.02677987533569
H         2.91041593322414    2.84517135101999   -5.96073529837177
C         4.71666798990850    2.17180334817314   -5.03304836937680
C         5.39046685885193    1.87324213462496   -3.87215809448520
H         6.41223188427504    1.52909815814088   -3.91394618425361
C         5.40752355990607    1.71572001258853   -1.41243341985634
H         6.40006716282794    1.26546507022021   -1.45645799712198
C         4.98857298080410    2.00731110938587    1.92525340815058
C         5.63862803755356    1.80394834948602    3.22217452361410
C         6.85942940454886    1.13177721217787    3.32589060122380
H         7.31849182601108    0.74893093923876    2.42915055327592
C         7.45760547201624    0.97182573463443    4.55247748757547
H         8.40053013892332    0.45819385644445    4.65404782219043
C         6.85953637934620    1.48372390482601    5.71078843520033
C         5.64070323476687    2.15212584614555    5.61005836594115
H         5.15620436716843    2.55773217230070    6.48414683008939
C         5.04121016584571    2.30627227699122    4.37563424159214
H         4.10012084516948    2.83000175039938    4.28764606492622
C         7.01805377019913    1.79833421685604    8.06500371555114
H         6.92098595873248    2.88737658496159    8.02169239291303
H         7.73746205977723    1.53144482310383    8.83738694028161
H         6.04724089208499    1.35441384320025    8.30627728160256
C         1.14683690642157    1.27942200967414    1.32020201477642
C         0.93125754094502    2.69647393109883    1.40316612937790
C        -0.16626400976091    3.15074929058030    2.12669533627185
H        -0.33882332563609    4.21520265193662    2.19254070644804
C        -1.03096905813676    2.25100440558563    2.75481728160769
H        -1.87323969650299    2.64146184014517    3.30716280007417
C        -0.83148990056208    0.89527979619724    2.68892606258604
H        -1.50415746462531    0.21027964867259    3.18299304312100
C         0.26552541643965    0.37820977959604    1.97138652005093
C         0.56233158987864   -0.99552729275555    1.85376756209942
H        -0.07970979762736   -1.71997434754469    2.33503795595440
C         1.65985181972491   -1.38732728847237    1.13360431510889
H         1.91652176656834   -2.42993382397207    1.02681314776088
C         2.46071286912488   -0.40977586404945    0.52000923676978
H         3.32956708062705   -0.69668616578996   -0.06186182403729

