45
CSD_code = WALNEF | q = 0 | S = 0 | Stoichiometry = C14H21MoN3O6 | MND = 6
Mo        2.82264641776822    4.57244048199983    2.68066230735077
N         3.89096150120901    6.58970179511276    3.71628107628278
N         6.35772226417816    5.35677731566476    2.46180887908895
H         5.92382767270793    5.40920019929057    1.54049961434571
H         5.26473318996919    4.13248888077117    3.16054834575021
N         3.07867299835355    6.16420224701923    0.37766120062375
O         2.01653975361098    4.71747366866591    4.28490864081695
O         0.49957759252109    7.69795228663716    8.62617065665268
O         1.67297712375448    6.04663327575210    2.11001644851286
O         3.68571094966619    5.21429999388953    1.16952364064506
O         1.95416235255462    3.33691153780122    2.02053779553616
O         4.32977132555016    3.83578206302701    3.18689887388152
C         2.32573633485299    6.68990475724172    5.56486792866040
C         1.69053753191966    5.45065693658814    5.31665597742332
C         0.68270667273334    5.02653487731898    6.20285399833645
H         0.20356778682994    4.07988828894380    6.00138705072452
C         0.32069930634997    5.79148387306044    7.28181925249053
H        -0.45144131741202    5.46818285065819    7.96187517755218
C         0.94289372292487    7.02598404238331    7.53020008649111
C         1.93232219103943    7.46275237248102    6.67076752201205
H         2.43046045607288    8.40689177750846    6.83210719024673
C         1.06981415998902    8.94904780959883    8.92694620583526
H         2.14252022839774    8.86407039639082    9.12832315840197
H         0.56212391923799    9.29440056989120    9.82587818869175
H         0.90532827245142    9.67002928279084    8.11984720547301
C         3.35885669952485    7.19829230556946    4.70464010782942
H         3.69888049252387    8.21578735198725    4.95366395214295
C         4.91587974627925    7.29503553594164    2.98514498385256
H         4.99428541611393    8.33670751569266    3.33644898850146
H         4.63681275685540    7.30479241616865    1.92678253022977
C         6.29997833991889    6.64593914652453    3.11602349067971
H         7.03420400948584    7.35570328357851    2.69357935374445
H         6.54359163078913    6.50447118329632    4.17632269908926
C         7.68422637446848    4.77562615081829    2.36034783476185
H         8.38424005475689    5.43710223731116    1.82158414757387
H         8.07142634075490    4.64283885821208    3.37659463658627
C         7.59567712596294    3.43072072091596    1.65395484096458
H         6.89783113821048    2.77803997010516    2.17353388911824
H         8.57196693205191    2.95416723432331    1.62395698903853
H         7.24004209955701    3.56308927166958    0.63487608455618
C         1.11680212553895    7.58626454855958    0.30390581668329
H         1.56722775277531    7.91948480663734   -0.62467490928841
H         0.98395546140296    8.42700714474305    0.98289766503482
H         0.13952820746709    7.15024774489443    0.10484265554336
C         1.99401488833054    6.55069099258299    0.94162782154529

