37
CSD_code = WALPOO | q = -1 | S = 0 | Stoichiometry = C13H20CrO2P(1-) | MND = 8
Cr        6.25600510810193    0.14811375887880    4.70832933177264
P         7.85079469270747   -0.17152649572635    3.16859473773229
C         5.03090886091098   -0.12507837526537    3.42068011193287
O         4.19994575931137   -0.38081744457390    2.61109775146925
C         5.92714723108617   -1.61846154257391    4.65634131593700
O         5.63440230860053   -2.76761350176613    4.58676520331812
C         6.17643887016505    2.32033036733597    5.36956160861555
C         7.45210153666090    1.81933359919789    5.67582699241394
C         7.31216653559827    0.77158631321710    6.60638701314971
C         5.93405281548457    0.61359501823417    6.86863146834329
C         5.23023855887344    1.57013622818971    6.10375031775845
C         9.59620461954036   -0.62781899115997    3.72821105974345
C         9.55030395317901   -1.92550457290565    4.51813548399992
C         7.57642729135554   -1.48276686392054    1.86678517740539
C         8.62298316766908   -1.72871068929151    0.78522343019856
C         8.40548467047684    1.26225650106901    2.06949908061269
C         7.21035654136472    1.79460489813830    1.29633015313495
H         5.96512269769784    3.20504713535859    4.78031469164801
H         8.39404323888142    2.26027377704388    5.36266289837900
H         8.12072530790045    0.28021193411971    7.13487189103136
H         5.50685286411860   -0.01903060835219    7.63914006540684
H         4.17369724805647    1.79871085298880    6.18972523092662
H        10.31108439882575   -0.68455272547862    2.90187179011530
H         9.91138397997899    0.18965509947794    4.38495444447499
H         8.67726804238395   -1.90322246877112    5.17339346674626
H         9.44234356948546   -2.77857971457228    3.85169579603512
H        10.45048744309429   -2.06752733797760    5.11870475889256
H         7.40006057154846   -2.39684814119827    2.44075393629614
H         6.61653509832134   -1.21649878987141    1.41525658038357
H         8.29919485245377   -2.54464644847750    0.13734163059706
H         8.76574924822617   -0.84655717518372    0.16464350768788
H         9.58207048455658   -2.00628079438105    1.21762292475967
H         8.77012071732051    2.03319517664552    2.75620057597322
H         9.22982685867212    0.99444590121276    1.40179131486368
H         7.40592558143273    2.78254515884615    0.87555094693167
H         6.94521686501424    1.11954813994382    0.48540616088150
H         6.35532841094439    1.85125282154820    1.97234715043109

