66
CSD_code = WALXIS | q = 0 | S = 0 | Stoichiometry = C26H33MoN3O3 | MND = 6
Mo        5.82800296944547    7.98449865752951    4.62509103288983
O         6.14994263457471    9.60829374310523    4.59353775681890
N         4.14984590194862    7.80709059057529    4.19522195122492
C         2.83597479597656    7.73231617924145    3.70588497504140
C         2.90897216257664    7.70454982594086    2.16524572864900
H         3.35854389996868    8.62810453234592    1.80871753023129
H         1.91275499083181    7.60232607319309    1.74093333590883
H         3.52525133971619    6.86748413433158    1.84303852011335
C         2.14266233249414    6.44539100218981    4.19593095064427
H         2.68844395140982    5.57684286909009    3.83422732354961
H         1.11870301464057    6.40100631812209    3.83153004570104
H         2.13544272979885    6.42465352269409    5.28296557794013
C         2.02273360875010    8.96468556299086    4.14701852170623
H         1.82237394373679    8.90988690043682    5.21299315348014
H         1.07885643070052    9.01862422901604    3.60900042353707
H         2.60923884072642    9.85957809439156    3.94958681519455
C         9.87185353604403    8.92502289767273    5.54088863018320
H        10.45254545791863    8.10658180124861    5.11985202247932
H        10.37309804914667    9.32268944156360    6.41761303227033
H         9.79988788067563    9.70672429829049    4.78471758151698
C         8.46693474560626    8.45335085689648    5.85192536154108
O         7.92472859661243    7.68803486452884    5.01315876110140
C         7.89301124362939    8.83403050121860    7.06569717155087
H         8.50428608306836    9.39707094753705    7.75459090978789
C         6.61407918606918    8.47171028251030    7.49323169118881
C         6.25397699002281    8.71290432396244    8.93842180087391
H         5.51458507886099    9.50977258296160    9.00621225141132
H         7.12995215322964    8.99961581925070    9.51286237911496
H         5.81537791383299    7.81608919620422    9.37447805884752
N         5.72803871807974    7.91886466049469    6.68980928885020
C         4.48150745833147    7.51791627133024    7.20204266220347
C         4.25214738747078    6.18193842983628    7.52081057885190
H         5.04853894246332    5.46446409403270    7.37724261120314
C         3.01532932991612    5.78661609962004    8.00036930774671
H         2.83868544724851    4.74725781672428    8.23803035478547
C         2.00666793150876    6.71785352754411    8.18279415792214
H         1.04401532234783    6.40677665463633    8.56022974990225
C         2.23515779746329    8.05021056388567    7.87366370062549
H         1.44775338908890    8.77683707252524    8.01366870890178
C         3.46439219656092    8.45322584029719    7.38621390771424
H         3.65241669182690    9.48412241883786    7.11454783186941
C         5.19407208593456    3.70916728377186    4.53419063561701
H         5.98537916614022    3.26271145773105    5.13511253809640
H         4.92961950177119    3.03031222523640    3.72974856176588
H         4.33158216374481    3.86219817118012    5.18138677335435
C         5.65718125105401    5.05303078006873    4.00858545093521
O         5.92571869062643    5.93949448026316    4.86891092768643
C         5.80537585129857    5.22529109305443    2.63658019882048
H         5.59979269955759    4.38494765470634    1.99091762690872
C         6.33903671753314    6.38173395418648    2.04885420762465
C         6.72414815414056    6.32049276525071    0.59141845456621
H         6.49100974381513    7.26192998105372    0.09682256418520
H         6.20085286937227    5.50934610868531    0.09255963369797
H         7.79541951281599    6.14808790742003    0.49369320164498
N         6.50911047791404    7.49491027912140    2.72399213513378
C         7.25386392956938    8.54474430895891    2.15282748282333
C         6.62002127137471    9.70770975014895    1.72154127902283
H         5.54592102629826    9.78438262193935    1.82659411433296
C         7.36761330557800   10.74969384559803    1.20618853862917
H         6.87288109096538   11.65212166312910    0.87881203399826
C         8.74739716510399   10.64669170469321    1.11520089091804
H         9.32740001276679   11.46718225825576    0.71945518534038
C         9.38018140447644    9.49321131859763    1.54478223020833
H        10.45631742637469    9.41159184280393    1.48645716908312
C         8.63902873976791    8.44059796019045    2.05280566267208
H         9.12676466768419    7.54220508514891    2.40696634786029

