43
CSD_code = WALXUE | q = 0 | S = 0 | Stoichiometry = C22H16ClN3Pt | MND = 4
Pt        2.85624751777407    3.51335056760619    3.29811594961920
Cl        1.70625673438721    5.32471009572242    2.69920829587645
N         3.79456727453005    1.83902664214743    3.76294975958616
N         4.37003457886370    2.42008577248648    6.00114661490777
N         2.69611266813538    3.98045260145547    5.41211929061082
C         3.09386646042240    2.84659145301925    1.44128895414717
C         2.83971061745045    3.45942992817358    0.22000686009094
H         2.50727902178540    4.48656434070129    0.19137985847419
C         3.00375870293744    2.76677704995462   -0.96851817845919
H         2.80353882438172    3.26036797289424   -1.90881117320261
C         3.41973319313684    1.44339208422536   -0.96156858125750
H         3.54195360892874    0.90915180179703   -1.89272026310569
C         3.68048555472424    0.80848575022547    0.23540714596686
H         4.01161676370591   -0.21977260948871    0.23049402955829
C         3.52401113747030    1.49971356307673    1.43754942916857
C         3.83287751769702    0.93702738387179    2.74408526716526
C         4.17182049159832   -0.38996443776176    2.97683620850821
H         4.18034306947512   -1.09614298232887    2.16443135789178
C         4.46332310183448   -0.79811211332989    4.26573361970403
H         4.68108337314345   -1.83238119824727    4.48230254184972
C         4.49134273496060    0.14056710488770    5.27879341120120
H         4.73771165764176   -0.15307518539224    6.28545957630937
C         4.18537933509756    1.47480513636314    4.98915051006222
C         3.74342030276169    3.64206678915511    6.17513527469433
C         4.18642699735991    4.49416873583753    7.20165768301647
H         5.09624870612173    4.27511499182353    7.73562454973123
C         3.45594005918093    5.61970780426138    7.50971266899814
H         3.79179742700074    6.28335609409092    8.29207214091579
C         2.28487925484156    5.87647094779500    6.80753686225150
H         1.65751229470643    6.71901411104213    7.04450676167378
C         1.96965794663201    5.04690453232996    5.75293382726802
H         1.10817647570911    5.24331701986429    5.12985273319121
C         5.31314296007403    2.03127187146593    7.00470531453334
C         4.88819103334663    1.73885202378321    8.29562489014714
H         3.83952958253944    1.81722220490152    8.54204284158144
C         5.81185969108508    1.35237967137903    9.24981026324706
H         5.48139103166392    1.12378499068277   10.25161935155129
C         7.15410332913542    1.25360135620581    8.92009640511201
H         7.87148144997967    0.95081359071669    9.66729070737077
C         7.57467881880254    1.54222518383974    7.63245892848392
H         8.61987623887993    1.46794182262272    7.37403825338839
C         6.65759411695417    1.93106347293445    6.67196834503772
H         6.97363834314354    2.15797206320658    5.66477171313170

