79
CSD_code = WALXEO | q = 0 | S = 0 | Stoichiometry = C30H42MoN4O2 | MND = 6
Mo       14.20666100626871    8.28032130659940   10.96718405127067
C        13.60852986323314    4.19709264171690    9.47506527962231
H        14.68125274330932    4.04064857300462    9.57428268726601
H        13.28160130281974    3.86982811517478    8.49291966788710
H        13.11075555615096    3.59354807466720   10.23375932271081
C        13.29456179024906    5.66377178683727    9.71389388262071
O        13.79826830519047    6.19231397687399   10.73694277116145
C        12.42299129154234    6.30075307973419    8.83244680722608
H        12.00634108048120    5.71219483181010    8.02847031988277
C        11.94655261923609    7.60798618579453    8.98261996203703
N        12.45461891581138    8.46542718229343    9.84008669034326
C        10.78964702665311    8.03674811325452    8.11113531678599
H         9.91699991336510    8.25280095356985    8.72672852274628
H        10.53149329812709    7.25947853229724    7.39776369308755
H        11.04454438769404    8.94770883989807    7.57105259469102
C        11.79936004592752    9.69569943092910   10.02740517721637
C        10.74685869304049    9.79333444072322   10.93604734536400
H        10.45631116365647    8.91536559286136   11.49686855902278
C        10.10408230918527   11.00296376051117   11.13016390978259
H         9.29901279829086   11.07437113876277   11.84778360560253
C        10.48210708640444   12.11944314832009   10.40261550960884
H         9.97543857659551   13.06126149748560   10.55174259542180
C        11.51562444514954   12.02214886133724    9.48422351512469
H        11.80973615240859   12.89061364848245    8.91215334140123
C        12.17256086782715   10.82003497390854    9.29421267828215
H        12.99224348543609   10.73552517797946    8.59417379978077
C        11.67406541585219    8.43746303816623   14.54270515405467
H        11.18362795906902    9.31434999177816   14.12294710551982
H        11.93459772847643    8.62815611391738   15.57907564701773
H        10.96858175452201    7.60823237243166   14.49877484585310
C        12.89554698701640    8.10430210154998   13.70416056196069
O        12.71313367906672    7.96860007217852   12.46782699199878
C        14.11010642918722    7.90705673643347   14.35823879282061
H        14.11845776921137    7.98894458488152   15.43506127931936
C        15.29168878491997    7.48373825727038   13.73902875677211
N        15.45214088214983    7.46069511744409   12.43441060203195
C        16.42601671803237    7.03077464152706   14.62747250822290
H        16.63631955871001    5.97520621853943   14.45811834068921
H        16.18132767186069    7.17553752791506   15.67576510306123
H        17.33209637118672    7.58778530638658   14.39151430291722
C        16.61224621141204    6.86210406554037   11.91138165287074
C        16.64746845215237    5.48589644094668   11.69276220527171
H        15.76886629174806    4.89752436518952   11.92020807381569
C        17.78296949320248    4.89222464923018   11.17110294580792
H        17.79713740936578    3.82681455506743   10.98976315186983
C        18.90325786246842    5.65631068004147   10.88842505821061
H        19.79035188771813    5.19052060030167   10.48594169656405
C        18.87915299575311    7.02227700572543   11.12253714076139
H        19.75376820861240    7.61947662369244   10.90723550670685
C        17.74347600040814    7.62550804517521   11.63136657469778
H        17.70557636957448    8.69245332693515   11.80246200629456
N        14.39770555423368    9.91529030315709   11.56086190714757
C        14.65823556620934   11.17243994863426   12.12796564488894
C        13.46959610700808   11.64939864503414   12.98782833257505
H        12.57197622406286   11.70081745096377   12.37642204495543
H        13.67101227064618   12.63271025292321   13.40791858057061
H        13.30052288145402   10.94402359540324   13.79818739571918
C        15.90186115014307   11.03986358445878   13.03188973010140
H        15.73146496138014   10.26600878985598   13.77787633748883
H        16.10868354253135   11.98269678599342   13.53363130447498
H        16.75950989837787   10.76190722172979   12.42368722100197
C        14.95295063330663   12.21905254730207   11.03376605204700
H        15.71202515756185   11.82389495891875   10.36254521941844
H        15.30625183552854   13.14886095043136   11.47446022041673
H        14.05124958738351   12.41599641794116   10.46167030197678
N        15.23812403560889    8.18469335760591    9.55695449226772
C        15.94263509054139    8.13112024284531    8.34423830371828
C        17.18837481469190    9.03964604971702    8.39084671073803
H        16.89094695485788   10.03180687472841    8.72255544750523
H        17.65184069332051    9.10907293126450    7.40904356366047
H        17.90876977211858    8.63829254534242    9.09730425264348
C        15.00648006372813    8.63315903729076    7.22495996926940
H        14.09641667359440    8.03644273713384    7.21367192393619
H        15.49758016069509    8.55725134233266    6.25720874880248
H        14.74542133903202    9.67193907295439    7.41359421562245
C        16.37299725712035    6.68612169325894    8.01806528766122
H        16.99434652040835    6.29835194856936    8.82154951564550
H        16.93476298645743    6.65479637371678    7.08673796456665
H        15.49152465226251    6.05610803739972    7.92353170011922

