27
CSD_code = WALYIT | q = 0 | S = 0 | Stoichiometry = C9H9CrNO7 | MND = 6
C         4.66644719884779    2.83155910488079    4.45305036917302
C         3.79139848631136    1.24401637140070    2.52837778857856
C         4.63051843333416    0.31552292425279    4.74873585153089
C         6.04275700984775   -0.14246577938381    2.67838743507541
C         6.89408462636310    1.49635238148064    4.58249226118861
C         6.16347700981754    4.20234872077215    1.89368878354361
H         6.33919164824055    4.57304917066534    2.91104118784646
C         4.74042302623729    4.54499131252278    1.46295835273785
H         4.56169791355716    4.21412419946585    0.44119597821596
H         4.58368875629407    5.61834646463481    1.51542310311797
H         4.03021912937600    4.04961803237485    2.12203330732268
C         7.17601300220817    4.88126534329798    0.96399466002564
C         7.96642427012677    6.92974733629481    0.14979600644113
H         8.98722255104669    6.57442065110573    0.29960067196245
H         7.87335849618152    7.97208425401958    0.44195179487819
H         7.69689397794915    6.80220170613685   -0.90001047179364
Cr        5.38779533053609    1.41319962982760    3.48195224446330
N         6.38249670584489    2.75277183698167    1.87293776500718
H         6.10924693894990    2.42023395368118    0.94485620831944
H         7.39296464086861    2.59641274154845    1.91554895697205
O         4.16622037505658    3.56700312924613    5.18275655105865
O         2.74447709344254    1.03445042940995    2.10184785748950
O         4.15821633046353   -0.37361315287377    5.54347085401144
O         6.34744162833718   -1.20237300017763    2.35765152690251
O         7.70505121976014    1.44191760368419    5.39470941677416
O         7.98232807636334    4.26180413292184    0.31846378391825
O         7.06394612463571    6.20171050182979    0.97828775523570

