70
CSD_code = WAMLAX | q = 0 | S = 0 | Stoichiometry = C36H30AgBrP2 | MND = 3
Ag       -1.82052633048556    1.92312514405492    3.37651028952962
Br       -1.81280751683117    4.37323180732641    3.38113231831655
P        -0.04436781894212    0.18327520597406    4.04971669362688
C         1.65002134632953    0.77958619840739    4.37969546936743
C         1.94041295835987    2.10195728675943    4.06301689640187
C         3.21907814295502    2.59644233080325    4.24699802204052
C         4.21218892607847    1.77200052532211    4.74793487144549
C         3.92505452977920    0.45406071068807    5.06870489747644
C         2.64987538958499   -0.04571802343433    4.88546540853624
C         0.28948363252396   -0.80246363949385    2.55171143773239
C        -0.09000460651118   -0.24542996021274    1.33516668701927
C         0.15253811371571   -0.91119661642191    0.14915575396228
C         0.77513452698577   -2.14751560441964    0.17144467320452
C         1.17039912198575   -2.70243054003701    1.37805343923876
C         0.93894164125686   -2.03245848484901    2.56495081405894
C        -0.28804150762394   -1.03695998035946    5.37283132972800
C        -0.89371449549025   -2.26959939499220    5.15369506856713
C        -1.18781103660819   -3.10113290402666    6.21780977505661
C        -0.89718243806006   -2.70429220187561    7.51221551401478
C        -0.31586379258291   -1.46698677716703    7.74115584518845
C        -0.02111083868079   -0.63309349756060    6.68038765978459
H         1.15574896115621    2.74797428572041    3.68352511537255
H         3.43633947108905    3.62586492050406    4.00485582143784
H         5.21106103890123    2.15573601402267    4.89428434531440
H         4.69997139390321   -0.18730207314515    5.46324538299663
H         2.42803670687652   -1.07100748035157    5.14696258771106
H        -0.58086173018770    0.72581722758871    1.32118283630369
H        -0.14993986320548   -0.47058022193350   -0.78893107521146
H         0.95729280429670   -2.67709870240246   -0.75176047608103
H         1.66659396968288   -3.66219655292815    1.39428447377967
H         1.25895754361694   -2.46835258062840    3.50058546986613
H        -1.12729295659182   -2.58027371161019    4.14578723670022
H        -1.65078935792872   -4.06022918881921    6.03576853734316
H        -1.12842778119359   -3.35536212910046    8.34206190767141
H        -0.09585640645506   -1.15119542746548    8.75050403764060
H         0.42410433478866    0.33811934956611    6.85513521389350
P        -3.59435634603272    0.18393484670965    2.70487179232514
C        -5.28865245939397    0.77913244219822    2.37256541301406
C        -3.92923333349248   -0.80167413115594    4.20268219285763
C        -3.34831992151492   -1.03623365727319    1.38216598285927
C        -5.58057007198279    2.10097575325813    2.69006346318440
C        -6.28712025417354   -0.04649239912322    1.86457175821694
C        -3.54807311036862   -0.24620208392703    5.41940814624241
C        -4.58125171067848   -2.03033469300474    4.18886461386430
C        -2.74566467502261   -2.27015758785860    1.60219965097858
C        -3.61070742290003   -0.63088006530629    0.07414562675479
C        -6.85935525692851    2.59466983215720    2.50471943223284
H        -4.79721888886526    2.74684855737310    3.07264227100367
C        -7.56250693936630    0.45240699707210    1.68019616409607
H        -6.06374354935509   -1.07091769817419    1.60102519765472
C        -3.79149913324049   -0.91231144449485    6.60508123189511
H        -3.05502066423483    0.72389700188737    5.43383517844658
C        -4.81368376388128   -2.70059516166307    5.37540207306696
H        -4.90277399978391   -2.46478742031027    3.25307980207641
C        -2.44989211964737   -3.10133948682015    0.53825523319773
H        -2.51585055621386   -2.58222260359555    2.61054210168458
C        -3.31429571687935   -1.46441776025138   -0.98641438766755
H        -4.05364543766617    0.34129680287527   -0.10110366276761
C        -7.85112941208370    1.76983950643475    2.00170510844562
H        -7.07817834587012    3.62328608342643    2.74890112752331
H        -8.33600581108035   -0.18882979827485    1.28268823980747
C        -4.41674854683240   -2.14727965988077    6.58222135159416
H        -3.48741027055722   -0.47310224959923    7.54329542762182
H        -5.31191673784366   -3.65929029823816    5.35875422716251
C        -2.73586592293946   -2.70292503079531   -0.75668984309798
H        -1.98923112642937   -4.06142716951473    0.72091075330878
H        -3.53068676728018   -1.14739444571924   -1.99615588639840
H        -8.85013471721936    2.15288424469938    1.85443951580084
H        -4.59955801747900   -2.67713255576872    7.50513294060968
H        -2.50323506925801   -3.35373998080642   -1.58634651662089

