53
CSD_code = WAMPEG | q = 0 | S = 0 | Stoichiometry = C26H19N2O5V | MND = 6
V         1.43558308179083    4.61934616956940    3.74102907230205
N         2.01124428309493    3.92230200730016    5.54269078674619
N         2.49476209828314    6.11889596804778    1.80106935468656
O        -0.03801642364337    4.44325013929924    4.07330209849531
O         1.85796474141758    3.02109327497333    3.14977534319326
O         1.86556947526088    6.21888191727985    4.58333194570214
O         1.41312979701213    5.48919146640278    2.26874970612457
O         3.68570133337989    4.92425183828398    3.26375089601039
C         1.49458377304860    1.87081595881577    3.61360233071273
C         1.20983623568317    0.79174860355005    2.75585680039226
C         0.84476948540306   -0.43314884695350    3.26296177030529
C         0.77244881569768   -0.64319124394152    4.64045241436042
C         1.06918482874379    0.38441528509120    5.50252373584973
C         1.42363795826450    1.65445909450160    5.02047775829003
C         1.78540762688061    2.70543771051599    5.91238519023987
C         2.40972417922497    4.91625761963731    6.41044527876046
C         2.89841661766925    4.79434663174336    7.71016424750772
C         3.22960806846748    5.93084074523825    8.42156860682263
C         3.07157463048297    7.18976887321726    7.85011821155507
C         2.59823627040999    7.33427563232768    6.56292861976275
C         2.27409925792640    6.19520756567045    5.81095232611556
C         2.25715267145931    7.13846709956823    0.85467811748861
C         1.25699704362319    6.93544963848775   -0.09112864448168
C         0.98345327419068    7.92021443379741   -1.02190925813403
C         1.69847265382893    9.10647466993044   -1.01085272046046
C         2.67419276112919    9.31617253431099   -0.04971743832595
C         2.95164001581555    8.34317511046622    0.89303426831364
C         3.67418880205839    5.73694417619263    2.33867778096065
C         4.93336562678704    6.26360564795739    1.75386040153347
C         5.15585860505205    6.27653521117004    0.37954756828629
C         6.36503364820778    6.72856881650793   -0.11578910425661
C         7.35400936442837    7.16910717858521    0.74956019982388
C         7.14217962166155    7.13878065403962    2.11794731178261
C         5.93977108012404    6.67685613072764    2.62165106510284
H         1.26809258798435    0.96259984237888    1.69048574154413
H         0.61338789072526   -1.24299395749840    2.58672543469878
H         0.48624727145268   -1.61064462635797    5.02304519234661
H         1.01851462660107    0.23039735883429    6.57116471105400
H         1.88771059593775    2.43696141973979    6.96750034402567
H         3.04040863580329    3.82086491042677    8.15758722487152
H         3.61521496076424    5.84121552988003    9.42554812403787
H         3.33431707887313    8.06851118532652    8.42077470848465
H         2.48419432898427    8.30884741089624    6.11192872158482
H         0.70070777319180    6.00877107936555   -0.07609275897604
H         0.20971036941909    7.76023832904740   -1.75733896511212
H         1.48611198106034    9.87301369817053   -1.74040968361126
H         3.21483876992460   10.25021030016572   -0.02319591125988
H         3.69161068694888    8.52072829879170    1.65782605103107
H         4.39161413650227    5.92306308328781   -0.29663216541581
H         6.53731039511502    6.73571837407973   -1.18153563942978
H         8.29334615618244    7.52802896255414    0.35635806063800
H         7.91584462804773    7.47066391946221    2.79389009169443
H         5.76133582361434    6.63950716913521    3.68627467622676

