75
CSD_code = WAMQOS | q = 0 | S = 0 | Stoichiometry = C32H34N2NiP2S4 | MND = 4
Ni        0.00044824767805    8.28646917116466   -0.00066064280348
S         1.79024120524877    8.34580946028124   -2.23471806876603
S         3.05558488413987    5.28234015879510    1.40585132148466
P         1.08104648096736   10.07663793828408    0.68898848349662
C         2.23612795608042   10.07850064877862   -1.88848703028159
H         3.10028290731918   10.32039240706907   -2.51113430036184
H         1.37119072609482   10.64282460446019   -2.23932757536628
C         2.53109927622149   10.36758088717947   -0.42320108340645
H         2.86630011408353   11.40386911053849   -0.31250609955667
H         3.33220963848771    9.71343847525920   -0.06352418619332
C         3.33886037089914    7.50423082259971   -1.80096251535888
H         4.16247355164214    7.99742680588349   -2.30948630869185
H         3.24211603205264    6.48226677092708   -2.15196345224143
H         3.48409611133431    7.49760771271271   -0.72540574111653
N         1.18660930142260    7.23012893866735    0.85001954898864
C         1.97055924800760    6.37236254551762    1.04998786626055
C         1.86843708009190   10.16855001025198    2.32819055511573
C         2.64117911861142   11.28008704862156    2.65479359843180
H         2.77417010875301   12.07789102306146    1.93711599819270
C         3.22643264806280   11.37181771022833    3.90280309583742
H         3.82847774138634   12.23367307340261    4.15166764261641
C         3.03815936127804   10.36337657530910    4.83555240666124
H         3.49930081279658   10.43853541120554    5.80927691530533
C         2.25283446151594    9.26806461327467    4.52121541469380
H         2.09581792577649    8.48649428825775    5.24934035930251
C         1.66483687996114    9.17090096617010    3.27184480018178
H         1.04464566859645    8.32215440037373    3.02191713015653
C         0.16173951833372   11.64393916022986    0.70757860312475
C         0.24774511354020   12.62829561294077   -0.26761603203329
H         0.92554356323557   12.52228659527161   -1.10205142200427
C        -0.54787459283656   13.75776032316980   -0.17955662732308
H        -0.48113200709538   14.51813126664669   -0.94386374166336
C        -1.43672329673412   13.90753297835042    0.87001209927227
H        -2.06409275501708   14.78449069510451    0.92503416330778
C        -1.53162090394057   12.92370856149006    1.84173690376960
H        -2.23067904577457   13.03522188517096    2.65799772873022
C        -0.73895080384123   11.79662797803306    1.75993886757569
H        -0.80806453020667   11.01466141380545    2.50653539935779
S        -1.79040215755234    8.22697175081840    2.23531470814636
S        -3.05448280143675   11.29159916532441   -1.40641223002789
P        -1.08094854691774    6.49624343391628   -0.68916578274291
C        -2.23602687477972    6.49435422013716    1.88841455820327
H        -3.10018199154399    6.25238185079525    2.51101376817799
H        -1.37109758352241    5.93000955645073    2.23923156580522
C        -2.53098074110336    6.20535979711251    0.42308712639333
H        -2.86627383684118    5.16910232338076    0.31231623787227
H        -3.33207549982474    6.85954876977094    0.06346161777477
C        -3.33886537256776    9.06862242504337    1.80115204532520
H        -4.16248295152931    8.57531899847794    2.30947676401085
H        -3.24232343717113   10.09053463494794    2.15232607173275
H        -3.48405649426869    9.07539939771250    0.72559065300911
N        -1.18605013499489    9.34334345604884   -0.85022742437239
C        -1.97314287978816   10.19869230295550   -1.04817715713624
C        -1.86844823113312    6.40422063669747   -2.32830315940955
C        -2.64114810507155    5.29263962585614   -2.65486285235132
H        -2.77410937580474    4.49485942645394   -1.93715448379368
C        -3.22637054018137    5.20082580599230   -3.90288101694358
H        -3.82837608651912    4.33893611645915   -4.15172014651159
C        -3.03811464111398    6.20923177841311   -4.83567127242792
H        -3.49923794836460    6.13401455361509   -5.80939922645807
C        -2.25286056063615    7.30460149537158   -4.52135975614000
H        -2.09585993716864    8.08614336025967   -5.24951798643910
C        -1.66490051322534    7.40185178987768   -3.27198070749994
H        -1.04475525721726    8.25063797939667   -3.02206716963589
C        -0.16177120403757    4.92886873651007   -0.70765325435061
C        -0.24783083556639    3.94453068354883    0.26756274652521
H        -0.92568531123435    4.05054199214348    1.10195228602706
C         0.54783971569443    2.81509485135014    0.17959920540765
H         0.48103845843886    2.05472561603638    0.94390085668060
C         1.43676717432044    2.66532201229897   -0.86990094861675
H         2.06414428277072    1.78836637469882   -0.92487121942641
C         1.53168299840462    3.64910684287300   -1.84166424065437
H         2.23081553625323    3.53760663082585   -2.65785943554904
C         0.73897441595833    4.77616075068059   -1.75995832460021
H         0.80816915110439    5.55814280925786   -2.50652649070900

