70
CSD_code = WAMVOX | q = 1 | S = 0 | Stoichiometry = C22H43N4Ti(1+) | MND = 8
Ti       13.36087678159165   15.46999505766731   12.83448643796057
N        13.15477681928450   16.19276691735367   11.29223229597080
N        13.29356329883831   16.79621808710788   10.06285923887067
N        14.12894017138936   17.01525064746109   13.83216081814111
N        15.37309812042788   15.39855499478983   13.00146350765991
C        12.46308776207609   18.03332886263479    9.98833448932398
C        14.71328093910630   17.18747140550932    9.83158303351524
C        12.82964530889424   15.87597300578671    8.95416460330608
C        13.54728880701865   14.53715478016634    8.98499973188814
C        15.36005595525993   16.58515354967034   13.59381995830244
C        16.59601569727934   17.37561763381316   13.94130460320759
C        13.80078865264437   18.38493919125911   14.17524481089392
C        12.32015845632704   18.60945397607420   13.84495996067764
C        14.06286654980767   18.71740826749558   15.64983307202479
C        16.60139482221473   14.71012849494253   12.64785649004707
C        16.31092102119547   13.71717661473213   11.52238246148532
C        17.20467528830306   13.97781788137585   13.85302211453148
C        12.14494707266549   14.87187870299928   14.71285147093873
C        11.27047553566871   15.00962543572341   13.59715674172899
C        11.62988551588036   14.01439936514981   12.63962673849783
C        12.73266750267938   13.27348107840497   13.16096592820898
C        13.04319298572467   13.80846333016558   14.44261929653842
C        12.01106687110722   15.51735518432799   16.06018835147783
C        10.01592446406369   15.83450901903783   13.51328924048516
C        10.80139449021559   13.64548433224977   11.44088134000788
C        13.20760270020309   11.96134420733264   12.59809534878919
C        13.98185314319601   13.23952485307553   15.46585990198473
H        12.81252696214188   18.73302649958249   10.74609331093615
H        12.53185243545238   18.48912132008651    9.00239582622820
H        11.42768423993767   17.77183778613169   10.20321991201515
H        15.00306133857846   17.89045378403655   10.61303306605945
H        15.33820607671642   16.30129568538774    9.92348179752939
H        14.83697328097550   17.64225168481455    8.85037112350943
H        12.96885330161716   16.38152618804988    7.99718558836240
H        11.76368380457870   15.71387706682111    9.12747679168725
H        12.97954519443030   13.81163275318710    8.40946610904367
H        13.61049023971131   14.20131196687239   10.02649998699971
H        14.54313456115711   14.59965482636458    8.55405306354280
H        16.91059913413700   17.13815837418975   14.95671768463546
H        17.42041457864307   17.14131641494620   13.27266341630389
H        16.39981355734200   18.44379335622001   13.88886896745957
H        14.40075280627971   19.07300338649737   13.54833140339489
H        12.06253082934159   18.04723045043615   12.94148482494457
H        12.11654234574273   19.66722518710504   13.69567842626154
H        11.69903836086698   18.25750240236207   14.66491583249075
H        13.75719126518548   19.74088849603705   15.85156035319007
H        15.11448185931761   18.61791836609995   15.90260694337586
H        13.48983195800301   18.05236148584793   16.29036458041673
H        17.34723983201210   15.43224997397031   12.27265014923294
H        15.48142980322357   13.07209206820507   11.80542986041599
H        17.18731550356902   13.10238327082452   11.33308271810151
H        16.05508617821049   14.24155037628323   10.60364771940845
H        18.17284283007526   13.56059550645403   13.58881946383043
H        16.55088537712274   13.16760077835237   14.16428107282002
H        17.34095133470331   14.65715467530947   14.69080828591979
H        11.38781256586933   16.40870436808973   16.02566139386281
H        12.98518491832641   15.78197954786256   16.47232458099602
H        11.54194431611297   14.81400733164130   16.75373355521310
H         9.94391674439000   16.36195152003475   12.55975795234823
H         9.14406314736938   15.18134272806089   13.59863406499866
H         9.96120960852641   16.56537324229756   14.31668811879663
H        10.39413829777269   14.53206454024743   10.95444374299369
H        11.37672533511563   13.07543190302160   10.71367442454796
H         9.95857625533957   13.02544635984330   11.75773451745238
H        13.32046813307024   11.99488494326770   11.51292637856464
H        12.47096155548068   11.18618580427199   12.82610650517488
H        14.15366073286358   11.64940941221874   13.03791242429388
H        14.54449700207014   12.39726186908175   15.06863201151454
H        14.68639092959455   13.98909031400088   15.83201946961736
H        13.41064673595692   12.87867710928430   16.32442059505324

