69
CSD_code = WAMVEN | q = 0 | S = 0 | Stoichiometry = C29H34Cl2N2SiTi | MND = 9
Ti        6.48401085415551    2.08527219701913   10.78760520491067
N         4.96007795307974    1.43613544726405    9.94035767116327
N         5.36217556320718    2.44079504642078    9.06048329768784
Cl        7.49523289940878    0.10786046526120   10.78999163716680
Cl        8.13461708256796    3.08973572930552    9.65917176443232
Si        4.26778431479088   -0.04246649086220    9.38352795604082
C         5.79587482384348    2.06305252419477    7.75376206873821
C         5.18226412064969    2.59456487285596    6.61927218230522
C         5.59382958067333    2.21076027377000    5.35609524161390
C         6.61248297354428    1.28693702889552    5.20050299340858
C         7.21219653293162    0.74286621666341    6.32332379703525
C         6.81022786312605    1.12101467944300    7.59190038531733
C         4.61227052895573    3.64777929407890    9.11072207283708
C         3.28517711481451    3.66305750244022    9.53067415083938
C         2.57219790378227    4.84950802700808    9.51608250263439
C         3.17054874704510    6.02199249247302    9.08462468913992
C         4.49670218371481    6.00953225862557    8.67762269524189
C         5.22090884253425    4.83244796594745    8.68988739705385
C         2.83047702715376    0.29902800179275    8.17357897708633
C         3.64768209871742   -0.94080534512776   10.92833663064164
C         4.46432903257594   -1.87516121580232   11.55642815135423
C         4.02689097709704   -2.58063446728874   12.66364385188943
C         2.75601232246785   -2.36153461488400   13.16836624683531
C         1.92650495552119   -1.43878191094180   12.55425443406196
C         2.37045197936969   -0.74271074473155   11.44338313033127
C         5.81103850144066    3.83244620310425   12.19800084575959
C         5.10657704803859    2.64786883770814   12.56897732159166
C         6.06484092989659    1.69109059037752   13.00646474739286
C         7.35756252978386    2.28531165361647   12.90978654213271
C         7.19670730637277    3.60756988431442   12.43022296748576
C         5.23341481777192    5.19816379927630   11.96806601381737
C         3.62224784169761    2.49591473930472   12.73054339773501
C         5.76051762758998    0.38109066702753   13.66893621213396
C         8.64998385913425    1.68193561796332   13.37605893603363
C         8.26115912983174    4.66046320794369   12.37171356773483
H         5.18942476176973   -0.96226131593825    8.67208710335619
H         4.37787096059569    3.30860051591441    6.71921155882369
H         5.10756793774634    2.63524895812504    4.49036963520066
H         6.93377683417406    0.99287440314913    4.21317292375880
H         8.00722871041807    0.02069910895829    6.21710263268201
H         7.29943636754872    0.68733320113893    8.45444723361667
H         2.82501590416044    2.74025374334104    9.85005874971612
H         1.53911893287277    4.85494417567576    9.83208360816377
H         2.60728667308946    6.94234336906600    9.06573156966878
H         4.96760459392868    6.92290351309244    8.34648544600375
H         6.25422132667260    4.80969165857973    8.36893378265158
H         3.17816469675848    0.81607907155058    7.28443232696180
H         2.03390071129809    0.89329652374757    8.60961221312407
H         2.39456503156127   -0.64182309952958    7.85633436442387
H         5.45805676603357   -2.04503540961121   11.16990699354496
H         4.67700090399052   -3.30278345483512   13.13631906885854
H         2.41147810060567   -2.90947721426312   14.03353342750355
H         0.93123331993549   -1.26569225788853   12.93921501462111
H         1.70483652710836   -0.03917705074780   10.96259759893252
H         3.26887728661465    1.57488739996626   12.26620278139366
H         3.37467717864185    2.45442695870176   13.79396872005724
H         3.09253699514433    3.33924510471160   12.29324925323956
H         6.39164041662353   -0.41696382959076   13.27781408587023
H         5.94260767694451    0.46204762813666   14.74358174500113
H         4.72157296645011    0.10106199045757   13.51453945473458
H         8.94762253292529    2.12510232920906   14.32969113430390
H         8.54844511210309    0.60677142798539   13.51129048412745
H         9.44754137003638    1.86247588700359   12.65249936178297
H         9.24951083479082    4.21271952753993   12.29056392500395
H         8.22950905309956    5.26288150640661   13.28363887070411
H         8.11546240577034    5.32359322960845   11.51995475344114
H         5.78206843371903    5.73439125367242   11.19406419272560
H         4.18586654270853    5.15577476572482   11.68042734916552
H         5.30799426689023    5.77856594649944   12.89160895525510

