74
CSD_code = WAMVAJ | q = 0 | S = 0 | Stoichiometry = C22H44Cl2N4SiTi | MND = 9
Ti        7.25046444294633   11.12359398014329    4.20397090561026
Cl        8.04077118535083    9.93955343298462    5.89940549509705
Cl        7.55399501442583   13.04360011901780    5.33103502292181
N         8.51413439054470   10.45887973197441    3.02670453846849
N         8.64295113589161   11.83662062826611    2.91714955843489
N        11.25232670939441    9.35094256966806    3.28399815116122
N        11.80444958972832   10.80388934136746    1.68123470508723
Si        9.64413407563712    9.25296149701617    2.52918398897477
C         8.49759607772378   12.33180849116428    1.55013900783785
C         9.86634795221753   12.38310510969762    3.50917583190502
C         8.86791801046420    7.62438835141328    3.16551483901876
C         9.80124592931041    9.00884925176256    0.63755968831214
C        12.22629227030661   10.01869280229275    2.60013564353708
C        13.67702647193460    9.74280001968410    2.91034358391263
C        11.42285711388407    8.79505307470547    4.62415919030277
C        11.74332439304431    9.86791003427192    5.66999941210155
C        12.38489911244800    7.60156316365541    4.68888390583789
C        12.67546415977379   11.51083846560494    0.77165700310551
C        13.06192447544186   12.87616233590206    1.35552127847010
C        11.95814005404574   11.70480378322458   -0.56583211461043
C         5.50600071611871    9.67085623389877    3.98917158228502
C         5.13488254305434   10.64137374518294    4.96653810788186
C         5.02798677131656   11.89395321684293    4.31885690912587
C         5.37224789560701   11.71881637043536    2.94988035437640
C         5.63561783744405   10.33429928869882    2.73550552901024
C         5.51043910648366    8.18778449540972    4.21890512103569
C         4.77883218366231   10.36344218250356    6.39786670255573
C         4.46582688131245   13.15160890211339    4.90824677469203
C         5.18844383814499   12.80107187522414    1.92255895054446
C         5.83183484973429    9.64248891840030    1.41616031542837
H         8.28926545258878   13.40295984548715    1.56528317737258
H         9.42704478384989   12.14447932936205    1.00260684025826
H         7.68361781240991   11.79753677754846    1.06197030658914
H         9.78245824729859   13.46902864388208    3.57632972244541
H        10.72365569370973   12.09545458963414    2.89033079994620
H         9.98665426455950   11.97227688967175    4.51547206435863
H         9.60751584547416    6.83511552980041    3.24444192278471
H         8.40681349363096    7.75819995141194    4.13831784817069
H         8.10069051606420    7.27341276744476    2.48399271350472
H        10.79138678977623    8.64786543910330    0.38790736361733
H         9.63429210612266    9.91781072420937    0.07520854616149
H         9.08586613868895    8.26877079103751    0.29266299995088
H        14.32541543496191   10.43725999178044    2.38425833606473
H        13.88284733264903    9.83155259045825    3.97081814581186
H        13.92094361617664    8.73082330802658    2.59118650976680
H        10.43702443932785    8.41170573257139    4.88958449342302
H        12.03659967026077    9.38859293455787    6.60078968136877
H        12.53865125319697   10.53898558498936    5.35721230514358
H        10.85144207740255   10.46006959849390    5.86632375066984
H        12.11688075071499    6.97778589398347    5.53854458500718
H        13.42159298108542    7.89905689948732    4.81126938197211
H        12.29375844703456    7.00335019580938    3.78526696528879
H        13.59731579465957   10.94360929697677    0.56413633468486
H        13.75057981936635   13.38769104532055    0.68697000580169
H        13.53827837885171   12.76027999512100    2.32675750357684
H        12.17514875940373   13.49312237986494    1.48139068795533
H        12.61753516910618   12.21247233415947   -1.26612224235892
H        11.06215350076223   12.30664280879901   -0.43608373338674
H        11.67610771363686   10.74344528536508   -0.98530430194103
H         5.90876422889307    7.66335297038727    3.35463828985558
H         6.11208338632548    7.92837572750543    5.09066159241885
H         4.48953440085331    7.84001038127979    4.39795883278900
H         5.16255054094660   11.14867000979289    7.05159611976055
H         5.19968496003988    9.41356759349617    6.72397874842062
H         3.69304371679415   10.32143252180085    6.51576843499039
H         4.95929782990178   14.03332382057840    4.50229803475251
H         4.58322605150809   13.16333154113556    5.98979067753053
H         3.39873485309121   13.21779494655629    4.67814687326586
H         5.45431659117646   12.46500962037974    0.92245249333847
H         5.78689266888877   13.68045396154756    2.16713887381498
H         4.14066143720290   13.10998788404929    1.90438644673522
H         5.62892455758977   10.31918489739043    0.58804618067552
H         6.84838649025193    9.25968828581969    1.31510174253409
H         5.13948681640020    8.80354727140310    1.33428396272317

