56
CSD_code = WAMWIQ | q = 1 | S = 0 | Stoichiometry = C17H32N5NiS(1+) | MND = 5
Ni        8.73800027091850   -1.29676478753912   19.58814503905814
N        10.36980783211831   -0.75674417982473   20.74371925762802
C        11.41111736867346   -1.29101746874977   20.89712805445956
S        12.79365270244866   -2.03958118411982   21.11573152890282
N         8.82295028868323   -3.29754254219517   20.40568199290730
N         9.86194849624012   -1.75152734711409   18.14367488386554
N         8.11819504763070    0.29600128362410   18.40341901085958
N         7.41533530062731   -1.00992065678918   20.91422510527445
C         7.60057452400612   -1.97620797921055   21.98805283711576
C         7.72003401821732   -3.37002026718452   21.36424395936175
C        10.05649800627205   -0.61721204793063   17.24797132718050
C         9.43707886460753    0.64021513316621   17.85149199567128
C         8.98213808255725   -4.36474605769725   19.41422348628157
C         7.82118074991291   -4.30515029543412   18.41834146847567
C         9.05966396142526   -5.74608710718184   20.07364299017822
C        10.32340066704233   -4.10080258699684   18.70002972491260
C        10.46276859827360   -2.85049971786792   17.88109005733041
C        11.40271503365912   -2.97021128887381   16.72353248755851
C         7.41780091997959    1.37884918573417   19.12330516367589
C         6.94642507394955    2.46090853209355   18.14348327534249
C         8.32202867726133    1.98920803833282   20.19521136779614
C         6.17055860281714    0.76347046793835   19.78515517855418
C         6.38731169385009   -0.25782201262133   20.86863315743152
C         5.26363625026651   -0.31843461567143   21.86219742649671
H         9.68676378440327   -3.24935475259262   20.95170779229711
H         7.51774643212509    0.00682929862707   17.62766959482564
H         6.80295043686543   -1.95256164733036   22.73124401288033
H         8.54693632470060   -1.72567560982132   22.48014724790195
H         7.89259536433201   -4.11347506220170   22.15095373118851
H         6.79533849963994   -3.61814379630296   20.83765593507229
H         9.58534763932680   -0.85048894484066   16.28360429512683
H        11.12101788616785   -0.43618868926688   17.07010884915123
H        10.07267213801202    0.97948835379685   18.67211766387690
H         9.37768926352784    1.42473921665389   17.08789278961370
H         6.92367146786358   -4.75505810448375   18.83391362126630
H         7.60494088637156   -3.26192703745749   18.16696644595613
H         8.07148991056449   -4.84044754970490   17.50708407702524
H         8.13295298445856   -5.98080497489217   20.59027944320317
H         9.22513169453499   -6.51386557740930   19.32330035707951
H         9.87771372502247   -5.78634791737435   20.78945698028356
H        10.53469835677223   -4.95524114732216   18.05649987941808
H        11.12403934199561   -4.06463413687391   19.44895730556347
H        10.89308742919989   -2.74791679338374   15.78580588623573
H        12.21662022718883   -2.25218392524772   16.82919381237274
H        11.83416037044688   -3.96340119095662   16.65919035828057
H         7.79121818112785    2.92985019676039   17.64697746076527
H         6.28248361706256    2.04728797328082   17.38602012726795
H         6.40822229078142    3.23918144599285   18.67669405085062
H         9.02517583144675    2.69312277390538   19.76004614566051
H         7.72172966487099    2.52909260763782   20.92189126573476
H         8.87958832773528    1.20875490907828   20.71438203669950
H         5.54598954303683    0.28712767003745   19.02009273133028
H         5.58083957261801    1.58017481879878   20.20332054266232
H         5.59296384331491    0.09137788084492   22.81693831576246
H         4.41499449554215    0.26586992519253   21.52039702539033
H         4.92670943745749   -1.33944071108191   22.02925944296808

