74
CSD_code = WAMXEQ | q = 0 | S = 0 | Stoichiometry = C30H35N3O5Zn | MND = 5
Zn       11.55854059623643   11.78223909111756    5.98642705578890
O         9.85149857792743   11.32243016855401    5.38139247285726
O        11.08692821323864   13.41228228950690    6.80355585866786
N        12.25742873242666    9.95815963371446    5.54741479242690
O        12.07240517953362   12.70559861888105    4.11117028718669
H        11.26067819005731   13.17742232629294    3.88227428017307
N        13.30652096470024   11.87054037373314    7.00073125697358
C        12.72300201084916   13.65782035856635    8.50720571147882
C        11.48408100681749   14.00089432005269    7.86669684644531
C        14.18375253051906   10.93285264735910    6.52928604391273
C        13.62063006407810    9.89496206911421    5.73547621077351
C        13.54767390227236   12.62032359410235    8.04129180109663
H        14.44216449813585   12.41825659624024    8.63782020724955
C        15.83153004665787    9.02131112982135    5.37282707482104
C         9.37746363895097   10.18282241757062    5.03301275711488
O        17.88111013650494    8.14426384464538    4.94501613010321
C        15.57138784382152   10.98742410448565    6.70694023503735
H        16.00642391534300   11.79922158195462    7.26915542156412
N        16.68206773875582    8.04033580802466    4.77130224925869
C        12.39850773551012   15.35302791727831   10.21656878971077
C        14.46008967324142    8.95352805553549    5.15750117945071
H        14.07943516475392    8.17487113045056    4.51471671085610
C        13.14145755531800   14.34776034475269    9.67140483278571
H        14.07942936556161   14.04275837944530   10.10832508642483
C        10.15813935964405    8.98611940539602    4.90542258347842
C        10.70417118698344   15.05427727439062    8.45916910677446
C        11.17919509112317   15.67895220702824    9.58007533625901
H        10.59437245894012   16.46953091250417   10.01812158398520
C        16.39200709987503   10.03730861921985    6.14388560333770
H        17.46233501721721   10.06835741613893    6.27488329798700
O        16.15825945490740    7.15526124505871    4.12175674189323
C        11.54216982424091    8.94147704786395    5.17085993519263
H        12.01688009461017    7.96171210707802    5.06815372497564
C         7.98857466430011   10.08002908574266    4.74732798383096
H         7.40252085894506   10.98093108688704    4.84923256037477
C         7.41435659342267    8.90223121148070    4.36201575297480
H         6.35531193281098    8.86224829968095    4.15070996947866
C        12.80479245185896   16.12587534610014   11.46095822479570
C         8.18460325063573    7.73646997469857    4.23843887839885
H         7.71858442799770    6.81202088931505    3.93433558696675
C         9.52177974982344    7.78710798039295    4.50917290691104
H        10.12732037668357    6.89550921477126    4.41977055491594
C         9.37543304400159   15.44047002746606    7.82074638137536
C         8.44395562041344   14.22027342891019    7.81763088570730
H         7.48205642410955   14.48919918439078    7.38612767369287
H         8.28101482997809   13.86917537198220    8.83489940527218
H         8.87042474083563   13.41104540450882    7.23291370299859
C         9.62496494554819   15.90701110943878    6.37974009149875
H        10.32229065071573   16.74320425875842    6.36769704965683
H         8.69004368314568   16.22682109867913    5.92457521430718
H        10.03729562130964   15.09295760926671    5.79347515456413
C         8.66625667609276   16.57531161846885    8.56759765664880
H         9.26618730746192   17.48305362928128    8.57214531652956
H         8.43425531350529   16.29071370293879    9.59151734146494
H         7.72776167779923   16.79946210283342    8.06470129723205
C        12.92928242627604   17.61550984353046   11.11140420190717
H        11.98394352367398   18.02420057925004   10.76587164180724
H        13.66906086045516   17.75644036909287   10.32611111068002
H        13.24301008066305   18.18020350202063   11.98674021355074
C        11.73485484104265   15.93228423978048   12.54456954115070
H        10.76886292538849   16.31123941888428   12.22308362360259
H        12.02134561128530   16.45962387795242   13.45198731888361
H        11.62525815136939   14.87555304303506   12.77891342770818
C        14.14725606626558   15.65528012088024   12.02702664620332
H        14.39279526071009   16.23869230952325   12.91195470463577
H        14.94642746522177   15.79212673841217   11.30224476116493
H        14.10311839844323   14.60820291029663   12.31716570499472
C        13.09416227280641   14.90456392201250    4.46121425591196
H        12.23031505830404   15.45550041834610    4.09450815426588
H        13.99026335937258   15.47986022536997    4.24667040723430
H        12.99810206189943   14.78731862015763    5.53760667557037
C        13.17977298479634   13.54035668928025    3.79533911411387
H        13.23902197874318   13.65128196418982    2.70412542650898
H        14.06502496312551   13.00113653608122    4.13909227446683

