26
CSD_code = WAMXAJ | q = -1 | S = 0 | Stoichiometry = C12H8OReS4(1-) | MND = 5
C        17.84918887514711    4.62394274167176    3.89803596230609
C        16.99326518189678    3.58399223150681    3.52692875268342
C        15.66900574031037    3.86356618150842    3.20628300550400
C        15.20339284674133    5.16273426969375    3.24735756873515
C        16.05420880153408    6.19640637766312    3.61632449233880
C        17.36856536628890    5.92836563412649    3.94326184822016
C        21.40274426310355   -0.52882549249158    4.88601972040626
C        22.25723815425992    0.51171582419165    5.25883643389833
C        23.48864543419444    0.21843905896378    5.83520757329461
C        23.86880607946794   -1.09414450965999    6.03229785078845
C        23.01960584409272   -2.12848529491953    5.66150031760881
C        21.79231585529435   -1.84767140059221    5.09473284189155
Re       19.90293460952388    2.09193462909379    3.62688302146488
S        19.51007961111942    4.28939289267004    4.34164570410409
S        17.56813126672283    1.92979719638198    3.49971802764313
S        19.83164540995070   -0.18110308923883    4.19450202640278
S        21.77095400569165    2.17990401466319    5.04009683452003
O        20.47170639439059    2.18405136049488    2.05726747884751
H        15.02097870064402    3.04713379283058    2.92439842268365
H        14.17426417761210    5.37294904944666    2.99095505234200
H        15.68948055824147    7.21375793724988    3.64806747701889
H        18.04346511560500    6.71911602558656    4.23513308019314
H        24.13486777681305    1.03533959407078    6.11989003058008
H        24.82993492033948   -1.31418511146982    6.47597378505582
H        23.31761734534914   -3.15634925610381    5.81551598086024
H        21.11825766566394   -2.63917465733643    4.80296671060773

