70
CSD_code = WAMYIU | q = 0 | S = 0 | Stoichiometry = C29H36Cl2N2Ru | MND = 9
C         3.50565715667475   11.07796078259590   17.22415845591851
C         5.39897490197710    9.85711419826640   17.82903440375697
H         5.30832347641603    8.91106935559068   18.37631984574174
H         6.37365951791147   10.29640492880759   18.05830628531405
C         5.15343498801168    9.69386637098891   16.33267911193368
H         5.95061736300375   10.13691948063935   15.72650725322100
H         5.02491202031162    8.64951383624646   16.03184845375780
C         4.36526985788981   11.29012931261297   19.57192136023393
H         4.22926741682132   10.46861715355043   20.28176977507155
H         3.54510509531126   12.00835750953074   19.67452689308101
C         5.67117964679414   12.01173396970600   19.81382442464558
C         5.97485007693780   13.07677757700834   18.97344901220622
H         5.25417368691405   13.36520201601437   18.22340367128970
C         7.15964974681632   13.77318771275302   19.11116470786722
H         7.38019248205719   14.60033559059258   18.45402065202557
C         8.05560455293082   13.40662435164420   20.10078523420682
H         8.98529994540983   13.94307289785761   20.22157828849144
C         7.75471126547966   12.35252668755161   20.94324384892349
H         8.45456172303921   12.07438603576126   21.71892916434354
C         6.56831631080230   11.63895875686048   20.81543635567409
C         6.28648063914221   10.50395001393299   21.75857909895693
H         7.11180382040426   10.38061256916933   22.45531936267029
H         6.15686587351456    9.56621755439859   21.21812128404376
H         5.38233222501245   10.69594051525050   22.33503543623357
C         3.55576484386663   10.72125685715032   14.75980232336136
H         2.55062896953444   11.15575346389864   14.74724835769853
H         3.55849137134562    9.78422579080749   14.19922432782078
C         4.52246814915242   11.72570045495657   14.17162708529686
C         5.10744982534645   11.55475367390817   12.91684426266423
C         5.99719311976239   12.52003310869288   12.46009863727553
H         6.45466279092954   12.39538081519098   11.48836291126154
C         6.30345852328826   13.63361097379613   13.22004109491613
H         6.99844267920959   14.36898210089152   12.84169888756096
C         5.70828363225136   13.80544970761756   14.45774786362201
H         5.92462405785362   14.67920799136391   15.05307733160592
C         4.82339649611106   12.85366836037688   14.92568596449385
H         4.33378633215311   12.99292034465413   15.88206050003213
C         4.79007347815328   10.37033931900687   12.04962667314310
H         5.08912084749570    9.43855898876121   12.53099296775539
H         5.31785266813079   10.44527980692925   11.10208050609777
H         3.72191982870293   10.32187779426648   11.84343504251669
C         0.90613130591920    9.76554115702937   17.87633555233995
C         1.07232881685794   10.36597648190058   19.15652433542946
H         1.63436641565828    9.84419485715086   19.92295818638971
C         0.46290628225217   11.59411699589706   19.44123918673246
H         0.58372007838359   12.03350468872345   20.42667196461723
C        -0.40872349364624   12.22362816367755   18.51010932637693
C        -0.58855691444254   11.60845155335192   17.26718560692151
H        -1.26943457830966   12.04112654710642   16.54359318770378
C         0.06624437114125   10.39546847823260   16.93811067144556
H        -0.14107379607799    9.91558628840548   15.98822613405574
C         1.48972660270029    8.41003493854236   17.59679469000292
H         0.78748464557096    7.63857583380855   17.91873279634329
H         2.42239401638281    8.26576147900986   18.13878321684181
H         1.67611105862261    8.27929512148582   16.53288540604817
C        -1.15217807707677   13.48151926306740   18.89252124857847
H        -0.72488197442673   13.85316858408562   19.83148055422737
C        -2.63050205207268   13.15361440335235   19.12834786307128
H        -2.74010880655848   12.39587586116218   19.90296485051239
H        -3.09235205277656   12.78269926867684   18.21520650370184
H        -3.16249502928687   14.04819099321433   19.44281356587890
C        -0.99259536547066   14.57744303379777   17.83776642390605
H        -1.40680648858829   15.51269303442000   18.20703111705041
H        -1.50318287803424   14.31777329797033   16.91305122905839
H         0.06214341881470   14.73422535872049   17.61575113249867
N         3.90810443890660   10.42477417952199   16.12771133127612
N         4.32847194028926   10.76053014362814   18.22823032452694
Cl        1.55353017705209   13.10352959711959   15.52167769817412
Cl        2.62117459863984   13.84487299621659   18.42076885156633
Ru        1.67799193673041   11.87324867116137   17.53490992801387

