44
CSD_code = WAMZAO | q = 0 | S = 0 | Stoichiometry = C17H21Cl2IrN2S | MND = 8
Ir        1.25301487695807    4.89978715448334    9.50487753081633
Cl        1.65756506144649    3.08528330518654   10.98679606812371
Cl       -0.47198426397541    5.67595101019350   10.88815842863259
N        -0.26522023705024    3.72784512052941    8.73787603306013
N        -0.67142212109326    2.60565466616397    9.33036640078121
H        -0.12671655713898    2.27482350845679   10.13566909768644
C         3.15641187955508    5.95282591936127    9.79032131770762
C         2.20955590241445    6.92576229258773    9.36427803240276
C         1.72350144045208    6.53187651971271    8.07363603060126
C        -2.08183404252730    2.96795022073147    7.69482872305386
H        -2.89553527775054    2.88837398948416    7.00546430780758
C        -1.11539831731469    3.96380336720325    7.74335572218696
H        -1.01690615963109    4.82825551920366    7.11814553724645
C        -1.77053617240805    2.10080901237048    8.74161156689279
C         3.34391532401589    5.01057343788570    8.70627842164619
C         2.47266846167807    5.37729119669686    7.65048541760749
C        -2.41698068685400    0.89988698095828    9.17672187945780
C         4.39231546228045    3.94823444607503    8.68995036176925
H         4.29396908383694    3.29935745316177    9.55919216229329
H         5.38177949141184    4.40631668938255    8.72120277101614
H         4.31916161601174    3.33612258938667    7.79522568913508
C         0.81413161666621    7.36697737503103    7.23240236059860
H         0.44597891583540    6.81237826542161    6.37276983795061
H         1.35022073750787    8.24407705701168    6.86441825919799
H        -0.03538696038199    7.71156244855029    7.81866515973844
C         2.41784096318038    4.74998720546469    6.29567522751864
H         2.63395653625336    3.68540298845022    6.34675317969407
H         3.15783023400113    5.21849943073156    5.64440269689515
H         1.43826312113433    4.87705837047468    5.84124219430863
C         4.01726930664257    6.01778529817263   11.01132942304796
H         3.50302307773154    6.52632461395424   11.82313473497427
H         4.94021960969040    6.55703245680885   10.78809515353032
H         4.27914365014654    5.01727552710034   11.34794866128215
C         1.80889601752349    8.17314669340101   10.07750831892734
H         0.79119419100014    8.08584603044475   10.45929801902911
H         1.84246258617185    9.01779517819719    9.39020002980153
H         2.47133265781772    8.37093780100626   10.91554937335248
S        -1.81434492923304   -0.00271040755115   10.53553904763435
C        -3.53221179155575    0.30420666550611    8.64520820214236
H        -4.06544174369603    0.69831531232401    7.79981765664042
C        -3.90104556675204   -0.87009552281158    9.32532005907717
H        -4.74805323229513   -1.47505497428868    9.05653850083744
C        -3.06924808463712   -1.15810783983765   10.36210739838145
H        -3.11785567706651   -1.98612437277707   11.04103500551445

