78
CSD_code = WANFEZ | q = 0 | S = 0 | Stoichiometry = C40H36IrP | MND = 8
Ir       -0.37726510525587   13.62438328368204    5.51748376114374
P         1.60174852259928   14.68836975582921    5.31958208288995
C        -0.61515016436261   12.54681459736861    7.55308840308158
C        -0.90792971655125   13.91850057987892    7.77306400069289
C        -2.02354124121818   14.28135558517424    6.95839031628946
C        -2.41550957860749   13.11714729948686    6.22301323912171
C        -1.54142749202110   12.04372960305712    6.59558232956986
C         0.34561713689453   11.73204829547987    8.35990488560985
H         1.21108885291196   12.32225614307172    8.65863223871569
H         0.70105290637888   10.86848533831166    7.80044569795689
H        -0.14192805053227   11.36782469054113    9.26791286505929
C        -0.25430463669283   14.75632764082241    8.82862171682848
H        -0.59088098903027   14.43467043857971    9.81672788049167
H        -0.49700282065798   15.81052890102718    8.71503248163238
H         0.83153066102268   14.65397843574971    8.79734091862721
C        -2.85020660967520   15.52725864842689    7.07874130797304
H        -3.72676806135495   15.33249536333281    7.70163756199531
H        -3.20511858461549   15.86487218974428    6.10581379422892
H        -2.28868532160644   16.33853985364946    7.53849801203407
C        -3.69075175410906   12.97572297131390    5.44865926826299
H        -3.61442963802079   12.18268673230587    4.70806932017716
H        -3.94092132469898   13.89822453972553    4.92931212205042
H        -4.51174653992234   12.73311525969991    6.12764202022228
C        -1.71460039284591   10.60430484573971    6.22441520546808
H        -2.38115570992282   10.11140330319085    6.93611672784247
H        -0.75996636710104   10.08047565984327    6.23637828894320
H        -2.14522373324536   10.50535900835248    5.22990603199230
C        -0.87699468883570   14.07220128895431    3.57402512429502
C        -1.79633521766621   15.01665393163164    3.14084118616846
H        -2.28841400249105   15.66768563581673    3.85191522436048
C        -2.09854068046970   15.16080863597846    1.79330185879634
H        -2.82491372729017   15.89984707161101    1.48361851950529
C        -1.47340094370960   14.36878880847729    0.84456815738324
H        -1.71258134702349   14.48989330704004   -0.20257446169635
C        -0.54031364008495   13.43012415848786    1.24083902334706
H        -0.03637350183600   12.81509812190123    0.50797605249130
C        -0.24366743252696   13.27471419927199    2.59117377465128
C         0.73800959037314   12.35962928621713    3.11986899255614
H         1.32915430256845   11.73806420226980    2.45854422129011
C         0.92326857754368   12.41459621666970    4.45462586539701
C         1.90406298318237   11.64649035569727    5.19248789498223
C         1.99169764223778   10.27568780174865    5.03542655837038
H         1.34281650388612    9.79283367143407    4.31960892278242
C         2.88401118469876    9.51166255694097    5.79067504120562
H         2.92623327337600    8.44234632917554    5.63971816255600
C         3.68352345701668   10.10797010507165    6.72754925004900
H         4.36106070350477    9.52198023328127    7.33157215123764
C         3.63129611824734   11.50331904617129    6.92816057511714
C         4.42554812263065   12.12719013758487    7.91389998273007
H         5.08552223975774   11.51332511126536    8.51030896922291
C         4.34864420622231   13.47480287840047    8.12480921130505
H         4.93933742172520   13.94441001638812    8.89812503638104
C         3.50531191538294   14.26443356619345    7.33283702902360
H         3.46090315550146   15.32863551051305    7.51527442947554
C         2.74347101172323   13.70269980116162    6.33425061644989
C         2.75248053565790   12.29250243349606    6.14103985954678
C         2.45259651417210   14.82470247323074    3.70942000905617
C         1.85430366986717   15.64547226665967    2.75770457040627
H         0.94219140576669   16.16627912208994    3.01277919997020
C         2.41503817440220   15.77514805460503    1.50191960946700
H         1.94067982211097   16.40285835609748    0.76242316109525
C         3.58093667032463   15.09372729897991    1.19107659362540
H         4.01887781087027   15.19107698742861    0.20851572861461
C         4.18583610423646   14.28708892095847    2.14021654801968
H         5.09717748707942   13.75887340533999    1.89948770662763
C         3.62473530704642   14.14865406554931    3.39761934791236
H         4.09394462709592   13.50916166108937    4.13183528180946
C         1.82603707735373   16.41870481407578    5.86664985032214
C         3.05436542004102   17.06696613672761    5.76713908632061
H         3.91199870907544   16.53254912518925    5.38098048678995
C         3.16849751235735   18.38915300536181    6.15447295945757
H         4.12293826649761   18.89034518746251    6.08316377111782
C         2.06027746193242   19.07561703763694    6.62749344787992
H         2.15526590896537   20.10867201385820    6.92815217695124
C         0.83070354786189   18.44275395334039    6.69992557139711
H        -0.03578722994418   18.98487217145528    7.05048521725185
C         0.71504065334809   17.11875051788816    6.31508466294374
H        -0.23739693152447   16.60860004273950    6.33867530508161

