90
CSD_code = WANFID | q = 0 | S = 0 | Stoichiometry = C46H41ClPRh | MND = 8
Rh       12.98330905560016    2.43383921607226    8.63323388702361
Cl       12.98367486768042    3.32730687656035   10.80634709744246
P        12.69174198618916    4.56484800135028    8.01382315849866
C        14.96768811290396    1.32743229635323    8.95714206777253
C        13.82725969475955    0.45170589179109    9.18662787666137
C        14.96134435913101    1.71218953057661    7.60804745474129
C        13.14524251370888    0.28794679713302    7.95785117797813
C        13.60806469037840    1.02692750882127    5.51132940594249
H        12.57824212082515    0.80629026054907    5.24527344112528
H        14.23595195746464    0.21080845472821    5.14443207455472
H        13.91202272505063    1.93851325236478    5.00271999655327
C        16.01723725303378    2.45513832244763    6.84768057206761
H        15.58516034134808    3.25831643673038    6.25040081752788
H        16.52307599977706    1.76634203663471    6.16809379191511
H        16.76094930508998    2.88619672174564    7.51335024045502
C        14.01793471106516    5.70803404859394    8.54586234741341
C        15.18784259226245    5.18531384695284    9.07973787610958
H        15.28505363198513    4.11375750019127    9.17556149662752
C        16.19722069225656    6.02600617523070    9.51358336555673
H        17.10152443616729    5.61172045082286    9.93518094943946
C        16.04331270348656    7.39833430607395    9.41771000457976
H        16.82760212648908    8.05747683039485    9.75994042816638
C        14.87573771740106    7.92781213193686    8.89013412367205
H        14.75143585067321    8.99873080703103    8.81944765335208
C        13.86414507068322    7.09074436323548    8.45838014776389
H        12.95428076775224    7.50837078403127    8.04915625917347
C        13.78536332864205    1.13904163214277    6.99260799711676
C        11.26964049214726    5.60133103459523    8.47883227906477
C        10.39667278879126    6.11503060709731    7.52693258194937
H        10.53758411327319    5.87415638174832    6.48242293048460
C         9.35767678310420    6.94242063520619    7.91510436602650
H         8.67798961360750    7.33505217771542    7.17230110466302
C         9.19169866920362    7.27162581900388    9.25011191170579
H         8.37910193683294    7.91778567841325    9.54851783100230
C        10.07099786737027    6.77541710202005   10.19931276294623
H         9.94648678903298    7.03323152154834   11.24041772402070
C        11.10712427073683    5.94310594794827    9.81877853089019
H        11.78832256736492    5.54142754609120   10.55439868671258
C        12.70998244642332    4.63152988276608    6.19394883511057
C        16.02938519299486    1.56369233350529    9.98646027539734
H        16.81664479753793    2.21098933013361    9.60606020037301
H        16.47768277391713    0.61120456464070   10.27456137153443
H        15.60430967673326    2.01868566089011   10.88148367633278
C        13.67054177625507    5.43110450979233    5.61365219074113
H        14.29371581304158    6.05457067078499    6.23703943107204
C        13.87405847057671    5.46455572309159    4.23115329149960
H        14.62826369071561    6.11743363172828    3.81743973494003
C        13.12579542893286    4.65396738743134    3.43185309340184
H        13.27429449877248    4.64153836995685    2.36157948972151
C        12.15032814461203    3.79301258909777    3.97990177080035
C        13.66666877448701   -0.34359320006812   10.44688145712508
H        13.57416657250559    0.31248507689646   11.31216078387547
H        14.54835276553523   -0.97083737621541   10.59329542224880
H        12.79411659020297   -0.99165883606901   10.40313497654381
C        11.44420714968272    2.94712144882911    3.10272317418645
H        11.66151417570276    2.99990549468195    2.04599693796859
C        12.05461042316450   -0.68667023184636    7.63106838467352
H        11.58100030390292   -1.07422282486424    8.53000009458761
H        12.47650473290082   -1.52767869459499    7.07660850772787
H        11.28785881149539   -0.22386924939205    7.01153926634945
C        10.51462964966054    2.07509739958214    3.58939575360213
H         9.98228891918953    1.40309241258297    2.93271566684733
C        10.23680910214188    2.07052278844813    4.95419104893242
H         9.48109186097823    1.38847619724021    5.31696180440766
C        10.87526834312345    2.89862520928353    5.86552667820879
C        11.90266380841593    3.77015757110993    5.38871666539384
C        10.31634111236510    2.79974386999736    7.23224098281238
C         8.82772261651934    2.71261451215757    7.20678222151257
C         8.08610867405919    3.70109261048846    6.56681292772680
H         8.59651232227866    4.52331920192677    6.08775988629448
C         6.70505503999747    3.64551931879461    6.54882560668570
H         6.14348349377986    4.42825550002345    6.05908918023952
C         6.04200357658498    2.59091307694680    7.15255482540598
H         4.96284732634424    2.54795201911008    7.13858361854154
C         6.77168695297853    1.58615460254311    7.76536107216096
H         6.26282783181329    0.75094137400797    8.22443205695813
C         8.15209248673652    1.64507315128665    7.79152040880356
H         8.71554073192781    0.85386734899992    8.26373658498363
C        10.95939214271350    2.62380121059040    8.40350674261000
C        10.19860046143612    2.51492000393022    9.65643628676445
C        10.42615009229346    1.45454894509299   10.53526986942928
H        11.15689382127566    0.70285750272931   10.27376051812742
C         9.72735276766308    1.34992884105197   11.72075835646833
H         9.91908954980298    0.51985686082161   12.38605074275850
C         8.78895129506457    2.30935077565687   12.06261999980130
H         8.25023002991205    2.23538488769468   12.99608937979723
C         8.54578559458984    3.36221639198138   11.19747819788383
H         7.81162127608141    4.11368041717499   11.45099589387564
C         9.23389311951126    3.46222253487711   10.00418670103237
H         9.02004848740079    4.27861827080052    9.33251153704997

