75
CSD_code = WANGEA | q = 0 | S = 0 | Stoichiometry = C31H41ClIrP | MND = 8
Ir        6.51788424934898    9.38940088520546    3.38863817961341
P         7.98602314808339    8.63761089724510    4.97172255517835
Cl        5.89800989197680   11.25599148924959    4.70318248880343
C         5.87653205931819    8.91065013645193    1.26403434184497
C         4.83797769156480    9.60566731320609    1.92424311285017
C         4.32133265415232    8.74677917978911    2.97410664090713
C         5.07297210387299    7.56815748858316    2.98838607550344
C         6.11474747609224    7.69898592042556    1.99259036683379
C         6.55694010470534    9.27314374395799   -0.01838684725497
H         6.24995114995536    8.57788724568704   -0.80193704139223
H         7.64040211676858    9.21513135527985    0.07913065725267
H         6.29172512109533   10.27896563978236   -0.33516175626435
C         4.15384472145790   10.86322327302926    1.48944091148804
H         4.72905691162175   11.38782118421302    0.72973151176209
H         4.01313820040438   11.53506003573090    2.33545018218080
H         3.17002993680821   10.63030320339700    1.07680698986392
C         3.09638765256490    9.06108642854157    3.77021506751283
H         2.22223000076017    9.08786900469978    3.11688998873298
H         3.18686891913759   10.03754459262432    4.24631675406498
H         2.92533317194636    8.31454334874588    4.54276186054696
C         4.77205081002984    6.31952856422504    3.75517292479361
H         4.35964655753129    6.53866707659119    4.73817551784105
H         5.66596835209723    5.71137702989007    3.87871539482101
H         4.03772692845246    5.72399517318848    3.20768302543212
C         6.98549228281884    6.58406872677520    1.50743755831959
H         7.30394819067453    5.93999953975403    2.32465096230473
H         7.87678000698405    6.97286377535591    1.02027834574262
H         6.43896817229834    5.97316248519919    0.78531917697531
C         7.22179276896336    7.52031593519068    6.25586997169477
H         6.92153136528684    6.64522601196617    5.66474204132558
C         5.95376700829940    8.17689180458047    6.79855652065784
H         5.35830450955704    7.45148778229700    7.35146953802442
H         5.35243165456360    8.57928365792437    5.98594663810302
H         6.19523855080676    9.00056100049784    7.46401872463127
C         8.11926669590044    7.05608130348437    7.39986606150948
H         8.30510293942357    7.86698722859827    8.09838263407842
H         9.07420778515524    6.67864750199195    7.04409499849021
H         7.61843902382343    6.25730281698717    7.94718126482902
C         9.15363078145615    9.85220981973535    5.79896391274011
H         9.38094631313482   10.54389354874820    4.97905335168230
C        10.46872660417544    9.23681456622344    6.27250009888704
H        11.16421736094983   10.03735417659817    6.51973927565056
H        10.92053284236853    8.62547571205112    5.49457130552744
H        10.33355404720790    8.62875593628443    7.16157770077979
C         8.47334265226499   10.65121669580734    6.90571592235377
H         8.30850500919553   10.04633240430479    7.79342794480157
H         7.52145810853332   11.04224071511847    6.55451600841952
H         9.10537637241519   11.49137193177133    7.18846444003409
C         9.13002664312270    7.61634670152070    4.00346288223761
C         9.40632215114773    6.27999307392249    4.25768904262895
H         8.93365222041806    5.77363732541603    5.08509743021015
C        10.29061075291958    5.57239246684921    3.46090187428571
H        10.49541079184740    4.53354795750926    3.67395084716899
C        10.91785234281800    6.20542933955767    2.40051886441326
H        11.62327473617388    5.66395707989574    1.78737450919242
C        10.62888017373389    7.52633136203727    2.11996547576899
H        11.10310754382173    8.01328119433219    1.27905138995709
C         9.71096285274395    8.24681460896012    2.88557933401110
C         9.39198377343157    9.61125937509768    2.50002823087338
H        10.17771170583673   10.09576785794841    1.92718887963131
C         8.24192647104191   10.26678864291688    2.71254872615451
C         8.07048774924879   11.69989966924716    2.26416984467504
H         7.28188204172688   11.74122292485433    1.50963743153384
H         7.71829132195978   12.27399945018693    3.12583932178399
C         9.32190659952987   12.32859442181220    1.72363866546944
C        10.25364018335194   12.89139961009931    2.58773883614019
H        10.05684377681831   12.88819907632625    3.65017976857239
C        11.41853760069110   13.45442966715245    2.09934190787529
H        12.13308706606505   13.89179577222712    2.78175306919101
C        11.66948344922544   13.46149461310219    0.73723392460402
H        12.57809965958005   13.90289886382653    0.35453041405822
C        10.74856697930540   12.90248951761627   -0.13191847900952
H        10.93779025437367   12.90636539706920   -1.19596993245120
C         9.58385811379871   12.33926235247286    0.35954278392679
H         8.86876206921701   11.90236639101852   -0.32352834342031

