59
CSD_code = WANNAD | q = 1 | S = 0 | Stoichiometry = C25H31NNiP(1+) | MND = 5
Ni        6.79515509891241    1.39604469717527   11.97333859782841
P         5.85068777609635    0.25543681562566   13.53634019629561
N         5.02115855965670    1.92678747630731   11.27121073452314
C         6.56633278457444   -0.52993581434751   15.00922895875471
C         7.44168344930030    0.21442319354947   15.79861040361593
H         7.67303792882269    1.23585445615463   15.52626352376276
C         8.00715516015664   -0.34608894401070   16.92749664892763
H         8.67876965691001    0.23612411554605   17.53997571620363
C         7.71510303590282   -1.65792644238598   17.26865210803588
H         8.16017152424611   -2.09737244040572   18.14765496489125
C         6.85718897894504   -2.40519455832653   16.47904041354698
H         6.63314709288988   -3.42762748202579   16.74189563239469
C         6.28366622130102   -1.84829000584675   15.34899263979939
H         5.61697844319318   -2.43634823355891   14.73535736043046
C         4.62662431035540   -0.94544985824472   12.92925463579216
C         5.07734336928811   -1.87681126427535   11.99603599698313
H         6.11369714288136   -1.84847567162787   11.68067291953055
C         4.21071999462498   -2.82564838543881   11.48619170274164
H         4.56333798853789   -3.54812718097917   10.76620757556754
C         2.88711543012690   -2.84176472824437   11.89889982615785
H         2.20745089429551   -3.57813546197664   11.49936573202958
C         2.43484395593947   -1.91273083138735   12.82228661683968
H         1.40423416998804   -1.92834601521284   13.14234739322209
C         3.29920133144112   -0.96360085544024   13.34019530444549
H         2.94201925726558   -0.24137388938413   14.05913256002122
C         4.83187119082036    1.59338357524133   14.23254188027976
C         4.52906294555436    1.81728595460318   15.68343337479337
H         5.42098307136103    1.79180328247305   16.30872361576024
H         3.86935912335699    1.02208234070935   16.04415039484156
C         3.83478434494570    3.18952641967412   15.70234443316415
H         4.56225652113985    3.96270952423615   15.94869313356059
H         3.03586794092762    3.23307329882633   16.43820556901349
C         3.31842855150437    3.40434024497720   14.27055237196661
H         2.26715856151948    3.11884784237831   14.17522570195659
H         3.40960583940694    4.44088433830441   13.94697849616410
C         4.17209431463462    2.47611083345829   13.45166609261420
C         4.11097408261168    2.42908335548837   12.01333211252484
H         3.18711195158896    2.81439099126857   11.58048045619868
C         4.75089343561783    1.68369533678619    9.84499335089565
C         3.50898036730284    0.79278552857233    9.70892050979162
H         3.66494532157479   -0.15270944938002   10.22431222341170
H         3.32072198172602    0.59073427041252    8.65848294310232
H         2.62352667383315    1.26794714783513   10.12207510525072
C         4.54673724092965    3.01018376741379    9.10742830202876
H         5.36870059918138    3.69154112916411    9.31510208534537
H         3.61778046136830    3.48981567321299    9.40427126200929
H         4.50861821643368    2.82854555551490    8.03735365143118
C         5.96790935791258    0.93569670534165    9.27960526614751
H         6.38055416209955    0.25851521023386   10.05033806149807
H         6.73704711430410    1.63113793498540    8.95186385106642
H         5.68007156483134    0.32683318478608    8.42734851401261
C         7.88754468008368    2.96554104655245   11.17325541873828
H         7.81716460289867    3.45350124936718   10.21116575807427
H         7.66360874363038    3.60010414829543   12.03399793213715
C         8.67377221769923    1.83920129072906   11.33555224603444
H         9.12910351078865    1.35197446587171   10.47867608045982
C         8.63833765387788    1.19553243893711   12.59454733230599
H         8.63448709592170    1.83033131736299   13.48432583308309
H         9.16691300295860    0.25604735513036   12.72350847800072

