129
CSD_code = WANTIP | q = 0 | S = 0 | Stoichiometry = C48H70F3N3O3STi | MND = 4
Ti       11.96416179985808    0.39039605282334    9.31576787513318
N        11.08097416639173    1.94329961244056   10.16581343034154
C        12.21515088324555    2.59662620767739   10.39823607705855
C        13.38435881604323    1.87394489376920   10.73168588532304
H        14.27756194059949    2.47380119886317   10.77025124879444
C        13.56892157965669    0.54125414973004   11.16714880139263
N        12.58355926296767   -0.34174164391210   11.05574676313868
C         9.80007826017519    2.55334355685329   10.09350125397241
C         9.15041336858622    2.82773739868666    8.87351571187616
C         8.01151472822258    3.62544491082647    8.87441108954103
H         7.54167773316838    3.86997963293707    7.93470896677666
C         7.48139096262748    4.13109032956468   10.04176730408907
H         6.63125895632008    4.79563256640705   10.01954930276822
C         8.01757833310526    3.71703165714886   11.24368091440618
H         7.55266046603689    4.04241832956880   12.15936678040890
C         9.13651978988357    2.89727627985727   11.29259545356362
C         9.55923234961591    2.31062022750722   12.62241088548973
H        10.00560124558651    1.33367617399872   12.39279705153287
C        10.59823512856918    3.15551092500852   13.36207361438484
H        10.24459656889877    4.17750464340133   13.48836499672443
H        11.53553146363888    3.16865153443115   12.81557881340470
H        10.78403908578673    2.73859806889891   14.34982780856919
C         8.34277201302710    2.11182416598846   13.53483795504621
H         8.58089355168599    1.43384244841173   14.34785857643849
H         7.50539112383064    1.69959148350217   12.97879822814463
H         8.03473478422467    3.05539783215557   13.97963761027904
C         9.58688416940888    2.25333204478999    7.54793204322916
H        10.47242287600904    1.62819198342949    7.70881515579749
C         9.92057965459351    3.33675184164748    6.51858797872779
H        10.34535317748077    2.87739451855352    5.62911683133686
H        10.64695503116113    4.04225858788990    6.91547418874998
H         9.03089173461330    3.89181946838249    6.22750760593842
C         8.47123078756480    1.34637544927290    7.01616268783676
H         8.30271161969555    0.52116681032711    7.70405979022950
H         8.76041173009928    0.93860592022850    6.05293891386102
H         7.54033622563645    1.89501205558419    6.89095928367120
C        12.44822553888546    4.13003872220893   10.27018335139751
C        11.19723535455274    5.01492836717763   10.33047663985428
H        11.50695495278273    6.05323347391031   10.21429656872217
H        10.68091159205283    4.92345215506128   11.27976845527856
H        10.50027667373578    4.79232911593665    9.53038950557091
C        13.10050055824947    4.37635739625561    8.89764378728085
H        12.43398995294491    4.06575781802195    8.09622042455472
H        14.03203038325507    3.82721108156252    8.78497975493686
H        13.31182490101254    5.43864383433077    8.78441329694334
C        13.42087092807073    4.65325049930169   11.35045904800640
H        13.32051061061722    5.73360889209059   11.42877246134899
H        14.45864533409332    4.45140548141611   11.09718145412739
H        13.21572647855336    4.22944747452617   12.33038669001061
C        14.98297598461641    0.27806936014219   11.75009675582843
C        15.22478755338005   -1.11892426826506   12.33354362340739
H        16.28012315866394   -1.20276659791153   12.59295982037856
H        14.99881852458258   -1.89618690030931   11.61075743128680
H        14.64576153723376   -1.30550303672176   13.23023719814097
C        16.02396672586803    0.43277557325648   10.62565124563198
H        15.97988773293539    1.39824867711999   10.13157911790117
H        15.87549629655917   -0.32918545361529    9.86241920191035
H        17.02244610487418    0.31272835864389   11.04325120552040
C        15.28283865741803    1.32328548763306   12.84452554183089
H        14.41144459887759    1.50385408367376   13.46759008285113
H        15.59777582977562    2.27244387540538   12.41904711734320
H        16.09249484969047    0.96792748978153   13.47857228527543
C        12.49812777082948   -1.56986389531968   11.75995068787329
C        12.27362536456040   -1.56896529780711   13.15506790256782
C        12.26457524987685   -2.76814870194157   13.85555676328304
H        12.11437288245147   -2.75543796735649   14.92384145986981
C        12.46293219604829   -3.97522123604400   13.22258670459635
H        12.48462892739216   -4.89570263866918   13.78569624088157
C        12.60913070742850   -3.98431853476632   11.85187543076721
H        12.73845378554023   -4.92876111458369   11.34882168238279
C        12.60626231144742   -2.81415503095754   11.10272061758308
C        12.74577085561511   -2.95880750085063    9.60431966270074
H        12.44791801863474   -2.00701213691029    9.13753083807727
C        14.19629904871298   -3.27031201510821    9.21550102810347
H        14.58077317493441   -4.10863863252982    9.79559197603623
H        14.83336672781278   -2.40452930300650    9.37940029576604
H        14.25122166800258   -3.52643984277701    8.15978063440383
C        11.82222879874531   -4.06323523008539    9.07440132478937
H        11.74335353299151   -3.99283923159607    7.99478639496986
H        10.82321241318457   -3.95634737857599    9.48707915482387
H        12.20386085167261   -5.05259624654039    9.31693543340003
C        11.97329529618197   -0.31938999642031   13.95354247862366
H        12.04688808605461    0.55305924256270   13.29595077406725
C        12.91040835843626   -0.12207822298045   15.15164612391374
H        12.73859934988544    0.85727303250895   15.59520420129968
H        13.95657167774788   -0.19050807029282   14.87097235685453
H        12.72004745947887   -0.87025381343395   15.91713687779215
C        10.53983032693506   -0.42235326902630   14.48250417005319
H        10.42433558313198   -1.30785273748193   15.10272528900266
H         9.83423197874740   -0.48890235438524   13.65995131873316
H        10.30676840558952    0.44588760050971   15.09375057755030
N        10.70485959906349   -0.58233116561687    8.79331349305472
C         9.83194719006648   -1.50768415457350    8.38461293997706
C         8.90809153768835   -2.07835633479134    9.30041158613299
C         8.01824400109708   -3.04149194059285    8.86455957001826
H         7.30326509468563   -3.46330258599084    9.55603098086479
C         8.02695544993235   -3.48644037774170    7.55362724131591
H         7.33398564113913   -4.25033008722548    7.23369264521931
C         8.92561145768108   -2.93971408534740    6.65311408327736
H         8.92259434991136   -3.29231254535252    5.63256370043427
C         9.81299285431350   -1.95076589954274    7.03281685002312
C        10.77284286079729   -1.33566599500702    6.03800528422092
H        11.06046208939552   -0.34809192102271    6.43291619136737
C        10.15167836870882   -1.15713434009261    4.64945598021063
H        10.10951495807440   -2.10666008962458    4.12049694396999
H        10.75790785996314   -0.47132081277707    4.06147071516019
H         9.14170117215939   -0.76082549014959    4.71808531955835
C        12.04447599676608   -2.18516372514040    5.91153965564981
H        12.64751813620982   -2.10250180720010    6.81436168691854
H        12.63912423447018   -1.84916697589047    5.06471256710760
H        11.78400233117213   -3.22945371578003    5.74437588656795
C         8.90285098887945   -1.58753524055992   10.72994387857210
H         9.83101043920969   -1.00362860808185   10.87749702476303
C         7.70650171088746   -0.65413852366587   10.94228793663079
H         6.78014118347402   -1.15484963275226   10.66775991504106
H         7.81920722311689    0.23795893994765   10.32888331213733
H         7.63895435258998   -0.35522697490983   11.98553212584370
C         8.87462480073538   -2.74165053743545   11.73377892122152
H         8.93466313080853   -2.36154846570912   12.75068862370600
H         9.71948502588372   -3.40629921989734   11.57274513676022
H         7.95586481500038   -3.31602960143848   11.64530670817069
O        12.61801651540154    1.65222945460438    7.72871102887769
S        13.94274373507311    1.06155595819617    7.76780737130679
O        15.01700562114694    1.91702032847080    8.15101629670137
O        13.85034360178948   -0.22560190024050    8.43162479346561
C        14.30411109687434    0.66238460963370    5.96100604943146
F        13.17672035926587    0.66897989466220    5.24733930179886
F        14.87332289434888   -0.53689993653611    5.82974985114353
F        15.12396033288274    1.56485175162846    5.42264105928364

