97
CSD_code = WANWOY | q = 0 | S = 0 | Stoichiometry = C48H42Cl2N2P2Ru | MND = 6
Ru        2.00505402889097    5.52483563639826    2.75663041730317
Cl        0.36281324534528    4.88619567471859    4.39513846400100
P         1.85199300292600    3.25647423158589    2.31176495963927
N         3.50599839847704    5.78710861524645    1.50085741524429
C         4.73942425100220    5.64837457715888    2.04054781490477
C         5.88733375884967    5.74296907227420    1.25553267745067
H         6.85717121234768    5.61241021540924    1.70962631422635
C         5.79283613502507    6.00508308853808   -0.09947825476183
C         4.50939033057655    6.17298508494406   -0.62442805806209
H         4.37023693667638    6.39506706383705   -1.67033469731159
C         3.41385016437613    6.05668788738707    0.19764544037325
H         2.41254110210778    6.20352696516012   -0.18472864673892
C         7.00019503687878    6.11642852968205   -0.97222905135000
H         6.97990717499885    5.34455352312983   -1.74073111850182
H         7.91430718086106    6.00929075536293   -0.39399833180483
H         7.01160189561750    7.08270342365682   -1.47428320819518
C         2.83758575934334    2.37961981013300    3.56006742718466
C         2.24544388876010    1.93223175066767    4.73742382888753
H         1.17273150812809    2.00160497119668    4.85210151195107
C         3.02864993932873    1.42123361444878    5.75678435981551
H         2.56260249007739    1.07076084038796    6.66598276392834
C         4.40557241727273    1.36669579241366    5.61841766561805
H         5.01504516378115    0.96647676522882    6.41567741829236
C         5.00373575973067    1.83702062919492    4.46022742857713
H         6.07936504790336    1.81099255651899    4.35577762991420
C         4.22639923478642    2.34952587094172    3.43907282764849
H         4.69485858280333    2.73655127100664    2.54170376953269
C         2.46066733799391    2.63793535436080    0.70485894657501
C         3.28594155998832    1.53568636169747    0.52137291419749
H         3.64715721483614    0.97270964325976    1.37041650389685
C         3.64204915074282    1.14842318333359   -0.75881254458181
H         4.28707410140812    0.29218345646957   -0.89728789263848
C         3.17151931177285    1.84582788624336   -1.85876295422220
H         3.45788861250954    1.53857042660467   -2.85422628371168
C         2.32087204652156    2.92503645944151   -1.68081708916373
H         1.93356777701913    3.45779428038235   -2.53687949250259
C         1.96214518347986    3.31633061316137   -0.40521052479084
H         1.27796853536378    4.14180415081188   -0.25099020239648
C         0.26338260302956    2.36945061149397    2.29574624968783
C         0.25477725285010    0.98219778321181    2.41967800210402
H         1.18320016246087    0.44796529761942    2.57377903913673
C        -0.94080499595879    0.29381567023351    2.35247706744784
H        -0.94791005115294   -0.78183626119066    2.45799181129257
C        -2.12796189619119    0.98052240445161    2.14886705053510
H        -3.06112177565208    0.43786399086118    2.10119839117616
C        -2.11652783070529    2.35671117345640    2.00195445099188
H        -3.03952940552633    2.89185515462592    1.83515845721071
C        -0.92316172717427    3.05435020667336    2.06926769380694
H        -0.91166885533244    4.12936159251269    1.95252726049173
Cl        0.35968257396119    6.16190174202013    1.11965022077707
P         1.85186200508174    7.79273059666974    3.20176857217810
N         3.50591536647276    5.26158913677068    4.01253281714384
C         4.73938100077977    5.40036042861305    3.47289162092036
C         5.88729330451211    5.30584104091105    4.25791545534268
H         6.85713163340554    5.43636111127193    3.80380495374713
C         5.79282078903995    5.04375854821014    5.61292969070522
C         4.50934829397784    4.87585221659096    6.13787126088448
H         4.37025248416405    4.65371142002158    7.18377611209875
C         3.41375956810272    4.99211655977442    5.31577223999360
H         2.41239420999834    4.84537979556246    5.69810541856829
C         7.00029472516233    4.93260517298550    6.48559354557396
H         6.98045528999922    5.70512673028576    7.25346476902244
H         7.91436823765530    5.03896018199625    5.90714444094448
H         7.01148007214122    3.96675208314580    6.98845066921439
C         2.83756461733178    8.66935319822008    1.95338299069603
C         2.24552127839708    9.11676199460962    0.77599165153152
H         1.17281343583975    9.04745226358175    0.66123937434457
C         3.02882350904932    9.62776156640258   -0.24329685468063
H         2.56286255100746    9.97825476378999   -1.15253393409255
C         4.40573420046018    9.68225524386911   -0.10483234746405
H         5.01527753874301   10.08245436604954   -0.90204712028469
C         5.00379703736995    9.21192679624233    1.05340594697760
H         6.07942191261505    9.23789127536618    1.15792784165887
C         4.22636582613750    8.69943881895929    2.07449535992890
H         4.69473948616577    8.31238145180543    2.97189573809924
C         2.46055142061159    8.41121289740371    4.80865205638834
C         3.28582923954500    9.51343964932053    4.99220693925634
H         3.64711365363725   10.07642864217779    4.14319365719898
C         3.64190305510524    9.90061622317904    6.27242802748478
H         4.28700731229331   10.75678704085235    6.41097480042113
C         3.17133161536976    9.20315108076859    7.37232311145555
H         3.45771721583207    9.51030878830463    8.36781372029327
C         2.32069328424043    8.12394020056506    7.19429516611919
H         1.93337541074329    7.59110260726284    8.05030653182591
C         1.96200798253046    7.73271683489050    5.91865029414707
H         1.27788608257937    6.90720465831479    5.76432266307387
C         0.26325067430584    8.67973763877827    3.21769540679253
C         0.25464121754344   10.06697219587471    3.09368753006687
H         1.18304999407021   10.60120941163536    2.93951069703942
C        -0.94094743212636   10.75533976859374    3.16092713049971
H        -0.94806100181119   11.83098799576936    3.05540449834874
C        -2.12809512642833   10.06864156851515    3.36463205619815
H        -3.06125444064528   10.61129337227107    3.41235020058239
C        -2.11665916274992    8.69245882552966    3.51153960898458
H        -3.03963840200374    8.15729981738522    3.67841429975654
C        -0.92329814988226    7.99484756774551    3.44418906724446
H        -0.91183334931287    6.91985705460026    3.56090648068038

