53
CSD_code = WANYIT | q = 0 | S = 0 | Stoichiometry = C24H25OPPdS | MND = 4
Pd        6.11457639634287    5.04667242880206    2.93952522595602
C         7.95089557297621    5.86219854204219    3.36022963657311
S         5.38877772614981    7.16080933187540    2.39119340399791
C         3.78330797958420    7.15589448663785    1.85308821227354
C         3.27642594403304    8.52081165030603    1.47336328824035
C         2.91489976421537    6.09495149702593    1.70339347956784
O         4.18399918977971    4.20701754317617    2.40826158291586
C         3.13796931594549    4.72773944672279    1.96787322116115
C         1.97027848454734    3.79873067513300    1.68934566059809
P         6.80436679289466    2.98758855384865    3.51771373085678
C         7.01471427710551    2.75908756338260    5.30892708138947
C         7.25271596076532    1.52091235782253    5.89752037652340
C         7.37458243193622    1.42641929464827    7.27210553953597
C         7.24422017684568    2.55762318998244    8.06272884144566
C         6.97425412298725    3.78669880574455    7.48225764891965
C         6.85591765289428    3.88774093408493    6.10771107832606
C         8.37194087543143    2.55576217111056    2.70169364058921
C         9.38901591362828    1.77876308415276    3.23762106550228
C        10.52863205348483    1.53163144912575    2.48986347273937
C        10.65433407082666    2.05223892844675    1.21289560717981
C         9.64457086001672    2.83882073612966    0.67818484641406
C         8.51059650226660    3.09605546207014    1.42360953974546
C         5.71720882438798    1.58899180513555    3.10744457856727
C         5.99860011813020    0.66602004040110    2.10773181575311
C         5.08057523274687   -0.32607528075463    1.80775527990408
C         3.87939351294671   -0.39614027602649    2.49280494153916
C         3.59088712627398    0.53016323153928    3.48402173623503
C         4.50369753390284    1.52047512909389    3.78890462026175
H         7.81007806284944    6.73497923995832    4.00808211482127
H         8.36285556663672    6.20639535332748    2.40239441932941
H         8.67028819034665    5.18245078628656    3.82865757801001
H         3.21904932977168    8.60111169370059    0.38739260257032
H         3.94895800964097    9.29212273926151    1.83937284272854
H         2.27923989705550    8.68927244760475    1.87651367439271
H         1.92780598524798    6.34106613560658    1.33091675615707
H         1.13258550295246    4.05224925136545    2.33640373095515
H         1.64652225242765    3.90044429611447    0.65579650084202
H         2.27232106283483    2.77049548705157    1.87622852334384
H         7.32206255541362    0.63493621079897    5.28077089043652
H         7.56483880913550    0.46683343169440    7.73069815011330
H         7.33977556995257    2.47681852058423    9.13552355039210
H         6.85178485103990    4.66211446869068    8.10271864812115
H         6.62415985624895    4.84098508382263    5.62707486694813
H         9.30095140171123    1.38160508317013    4.23810401374843
H        11.32358150666716    0.93130340073431    2.90792733490931
H        11.54576140816513    1.85416637241042    0.63623522614618
H         9.75073942785414    3.25510631265929   -0.31270915804187
H         7.71156011917614    3.73469912377113    1.03787093583079
H         6.93279192635242    0.72348222130895    1.56605388277994
H         5.30258252636308   -1.04480238479501    1.03213110240660
H         3.16410731370516   -1.16873242572991    2.25106108297388
H         2.64970547635451    0.48013281637121    4.01273296959812
H         4.28493897901165    2.25956155264911    4.54967860775688

