56
CSD_code = WANYEP | q = 0 | S = 0 | Stoichiometry = C25H27OPPtS | MND = 4
Pt        6.26565202180977    5.01610915893348    3.04035257968161
C         8.12360933050599    5.73863277687602    3.56161247310310
C         8.91590819370631    6.11867394698296    2.31534688476148
S         5.58420512995015    7.16587385635066    2.59003371667687
C         3.99691798195835    7.20622090396009    1.99515823403929
C         3.52120515763108    8.59702904738571    1.67525307135966
C         3.12586219668857    6.16762152430574    1.75309158026242
O         4.33854200588713    4.22530202215453    2.40332381056995
C         3.32147692476084    4.78471748615979    1.94779737524042
C         2.15536177349194    3.89348229819188    1.56325811955810
P         6.86894091109029    2.89115315004737    3.56828568085829
C         7.01412214439858    2.56444904129508    5.35145131870089
C         7.18410078948143    1.27643697170172    5.85096323126486
C         7.26587439450516    1.07330349433117    7.21629220737552
C         7.16907175801186    2.14814966897704    8.08689803737667
C         6.98053552934716    3.42887438297850    7.59350324557066
C         6.90059342427085    3.63698385416772    6.22788860145545
C         8.44688130544245    2.35853733325763    2.83888214618749
C         9.50800620725398    1.80708770287848    3.54294107657869
C        10.67767043876394    1.47779304035363    2.87817184029909
C        10.79525140518688    1.69834755651655    1.51641504880248
C         9.74438816786450    2.26566718582658    0.81155817066031
C         8.57919071324372    2.60251682091032    1.47258443336564
C         5.70485980444990    1.57533578838658    3.08967677492518
C         5.94398534272973    0.65270215664941    2.07966331116194
C         4.96984081553498   -0.27268213715137    1.74438926386935
C         3.75407700352532   -0.27848693276233    2.40632327732876
C         3.51009679089095    0.64344222456485    3.41317088905100
C         4.47948735607617    1.56636183276982    3.75260207699219
H         7.98712615120949    6.63279660916629    4.18277303143870
H         8.71032662264781    5.01356469909116    4.14294036551455
H         9.10895082105434    5.24589749168193    1.69215745091665
H         8.38236703890347    6.86389798879485    1.72707673817178
H         9.88111673893051    6.54397614462613    2.59708187441867
H         2.51982835220190    8.76294166174744    2.06983125680871
H         3.48375781087629    8.73328752836041    0.59376484213128
H         4.19936800497374    9.33756412367459    2.09166485940734
H         2.15731385873926    6.44695597897235    1.35595023112655
H         2.43125585033910    2.85110547306598    1.70628561080667
H         1.88311506692868    4.05835531069067    0.52284292530177
H         1.29154577239422    4.12609026223498    2.18353169272461
H         7.24256466312682    0.43925671981203    5.16804111677549
H         7.40132069754112    0.07433925486746    7.60493117918369
H         7.23254985575130    1.98350328934913    9.15250276541830
H         6.89258349793333    4.26295055489596    8.27380892751429
H         6.74060072537313    4.62910554657157    5.81669436867714
H         9.42647992305895    1.64374365632492    4.60772379542750
H        11.50331924447994    1.04999297971256    3.42800855511703
H        11.71007901187376    1.43859432489453    1.00458570968121
H         9.84142843777066    2.45236724815737   -0.24803429075217
H         7.75360715622405    3.06990749546987    0.94655919033113
H         6.89003601999256    0.65315250076328    1.55678253109117
H         5.16078236410920   -0.99029940892628    0.95946160074852
H         2.99498410097751   -0.99819535338602    2.13648187370210
H         2.55989945886750    0.64300609546614    3.92787212910760
H         4.29587773525458    2.29760566686082    4.52849119215265

