68
CSD_code = WANZAM | q = 0 | S = 0 | Stoichiometry = C28H35MoO3P | MND = 8
Mo       -2.14911128262611    0.04754359961859    5.27335592885357
C        -0.95147257061245   -0.32859373864804    6.73391975086148
O        -0.28695183497177   -0.56200699672945    7.64626904368931
C        -2.65710973349456   -1.70087013670873    5.90519863357814
O        -2.96021634032252   -2.72390333345636    6.34424655510499
C        -2.65284839659606    2.22918140471151    5.88123326508626
C        -2.49407916855716    2.24273415901059    4.48092266401879
C        -3.49898809923446    1.42494826880343    3.91808761521519
C        -4.27926180176514    0.90525269733456    4.97098810316580
C        -3.75493795726030    1.39649185951554    6.19310003675522
P        -0.60327859600597   -1.00260666431392    4.02299167113367
O        -0.09686479248606   -0.73061282650046    2.51643054988721
C        -0.18380249298477    1.52256969726094    1.79165442723784
C        -0.81851867762562    2.55612857641634    1.12898576498172
C        -2.03495800582524    2.36155074187686    0.48451337319394
C        -2.54502568841491    1.07523879482434    0.45746409786091
C        -1.92784557364401   -0.01659780695633    1.07452568669028
C        -0.75736593166117    0.24465897315769    1.78621837587179
C         1.14778819843944    1.73541829357805    2.43815991742622
C         2.27469117282509    1.10023213863720    1.64566906114212
C         1.43526298969492    3.02581794082358    3.14872956829655
C         1.27787736930446    1.75837799351152    3.93635098126881
C        -2.73842162502338    3.54788381083148   -0.15617729373958
C        -3.02173032404019    4.59521923608237    0.93102915536871
C        -1.82681490828316    4.14834523247138   -1.23546535062199
C        -4.06917948751357    3.16875829504628   -0.81168810999598
C        -2.58813618267129   -1.38335673842086    0.87619353250875
C        -3.95842318442675   -1.39005214497519    1.56872707249634
C        -2.76338741927184   -1.61676562298324   -0.63538564725968
C        -1.79924748955358   -2.58093313412692    1.41457699387007
C         0.57599909350839   -2.37780251621324    4.37817622669602
C         1.92941767327455   -1.87491815881872    4.33378857567821
C         3.04570519064382   -1.44575139705302    4.27933927195056
H        -2.12388885588490    2.86242397456312    6.58504181794492
H        -1.83663796559385    2.89518432741034    3.91858759515075
H        -3.72502645700339    1.35975564554558    2.86143381692593
H        -5.21252252982404    0.36368563949017    4.86103436388650
H        -4.23783388946349    1.32589090489265    7.15994500171382
H        -0.34882602793124    3.52734145748637    1.13024041539491
H        -3.47167902384041    0.89890179532652   -0.06004650451373
H         2.15157889594478    0.01963835957266    1.61202942690280
H         3.23327268351797    1.32347918521506    2.10682377414610
H         2.27999747016723    1.48292425709003    0.62550933916911
H         0.65425234934074    3.76735039559380    3.23194489045073
H         2.15273887250970    1.30215051376493    4.37413407259055
H         0.38880722207257    1.64984474906337    4.54697947345659
H         2.42188381180578    3.45354598306895    3.05049133874656
H        -3.64189810078238    4.16717666130659    1.71670069627890
H        -3.54685773424355    5.44657439696309    0.50342015790621
H        -2.10154021774513    4.95705089195352    1.38167611902613
H        -1.59566408123285    3.39973873827401   -1.99056449754111
H        -0.89205077849971    4.50589898451821   -0.81274056944260
H        -2.32343381320880    4.98650683413009   -1.71954392962581
H        -3.92077340283992    2.45022562248216   -1.61461038091567
H        -4.52632441582130    4.05822788375908   -1.24005556440273
H        -4.76382107816585    2.75587854551574   -0.08334143931676
H        -4.59949998627589   -0.59228949056491    1.20224615249682
H        -3.83171361449065   -1.27097571816467    2.64683675924184
H        -4.45970204114682   -2.33839006850809    1.38807629262510
H        -3.43591841289924   -0.89571350159466   -1.08945337192825
H        -3.17447084037814   -2.60847182369524   -0.81061495916993
H        -1.80076017557529   -1.54956856646060   -1.13786992065992
H        -1.79144624677314   -2.59147805349894    2.50711194673277
H        -0.77839324868393   -2.58505269089794    1.04137226305693
H        -2.28524914857385   -3.49842220587101    1.08573788491100
H         0.44570063555741   -3.17132076731336    3.63356131747535
H         0.33420673135001   -2.75438262712480    5.37765694157976
H         4.03102929175104   -1.08761073089016    4.24401978138983

