68
CSD_code = WAPDID | q = 0 | S = 0 | Stoichiometry = C23H36NO2PRuS4 | MND = 6
Ru        8.81121368933976    2.23046648766916   -1.68871431974270
N         7.39383755490221    3.88918203115774   -1.44231839419284
H         6.47992047431116    3.55909643565169   -1.13230946391535
H         7.24524488272407    4.52913216685516   -2.21768347026958
H         7.86056684235350    4.39550762810459   -0.66835339502125
P        10.18289635337957    3.40124303756963   -3.20140409237406
S         9.85503214958424    3.10305910449205    0.09376403247196
S         7.40620725247421    1.13022489328703   -0.11133123967139
S        10.13748441235081    0.33221986542312   -1.65021823272122
S         7.48735170713599    1.14347815326173   -3.43421261289105
O         9.35881244328966    4.47554329070462    0.31994817883552
O        11.29630046292762    2.94286739484998    0.21373618586237
C         8.02956794322620    1.55302881781489    1.51458102189004
C         7.38341177440335    1.07430553957913    2.64426023984183
H         6.47656699763602    0.49460084868466    2.54941959911602
C         7.92237354010986    1.35714138298919    3.88743682085476
H         7.42949912813814    0.99229996820787    4.77626708720258
C         9.08693886462995    2.10514660263266    3.99626593523270
H         9.49979296861123    2.31607724620365    4.97144287878222
C         9.71230848205169    2.58980666188665    2.85983627288509
H        10.61271712054651    3.18242040204086    2.90718566984108
C         9.17608019351881    2.30953579609577    1.61838292999407
C         9.41537499270073   -0.75426576467237   -2.88378744143635
C        10.03743684733298   -1.97474815562119   -3.09932322970584
H        10.92789542502418   -2.21555597853715   -2.53642354465035
C         9.52427088645029   -2.86450172833483   -4.02136255518315
H        10.00581499649378   -3.81621569290855   -4.18325237456789
C         8.38512531235532   -2.51644085714201   -4.74106181070376
H         7.97728561016864   -3.20602123717138   -5.46529597543165
C         7.77825557620531   -1.29838437591593   -4.54553935957696
H         6.90064217912833   -1.01633811448015   -5.10609650359727
C         8.28127649523563   -0.37823301567985   -3.61354145247137
C         8.03324727966691   -0.58775711176112   -0.12183144109597
H         7.65611692027960   -1.07636445120381    0.77728002649475
H         7.60247916010183   -1.05801416139307   -1.00846516927887
C         9.53986307225152   -0.59096815730195   -0.17862397662594
H         9.93303812256685   -1.60486481445486   -0.25832792755600
H         9.98399668170626   -0.08994204651371    0.68428722680511
C        10.93374065474547    4.97110260121728   -2.48759130834441
H        11.14340452693266    4.68373360191645   -1.45058367643713
C        12.24444112493203    5.46059611036184   -3.10273187654770
H        13.04753442929541    4.74569255090698   -2.95901175397920
H        12.53459425409014    6.38020211376809   -2.59566277725913
H        12.14443498891534    5.68402136963680   -4.16142563956917
C         9.93075310427908    6.12197024337630   -2.44023448841028
H         9.02361459288611    5.82039731203438   -1.92753276199061
H         9.68926358262024    6.48474722592661   -3.43667009018743
H        10.36132931389492    6.94822093173507   -1.87626359008414
C        11.72571927220651    2.54330298503872   -3.82554304291771
H        12.26152767979825    3.29969486769569   -4.40636696925664
C        12.61561302086475    2.09715891704033   -2.65652365485935
H        12.32380972597477    2.56513867276009   -1.71661115733054
H        13.65923330194084    2.33600982397480   -2.85324382347474
H        12.54505942725938    1.02173735058847   -2.51805086662790
C        11.41506253705411    1.37406055169436   -4.75859496607823
H        11.08305134426587    1.71431268767518   -5.73622307569118
H        10.64248508940136    0.73497893706370   -4.33665049239242
H        12.31143966673342    0.77319321140420   -4.90227236488334
C         9.35452343017498    3.78762479419269   -4.84322072060719
H         9.23778096711110    2.78304309954263   -5.26933973461774
C         7.94119927424735    4.34551004182026   -4.69232635021825
H         7.33480660714239    3.64878150840604   -4.11736183056911
H         7.48649434076587    4.44079438848702   -5.67757391049301
H         7.93740118956080    5.32748874889595   -4.22699443904202
C        10.15969470507410    4.64657074936289   -5.81402014429503
H        11.16233880848607    4.25903562215464   -5.96980082238259
H        10.22944331844728    5.67340521703431   -5.46511015950547
H         9.65576092559592    4.65900567219819   -6.78017963536704

