29
CSD_code = WAPFIE | q = 1 | S = 0 | Stoichiometry = C10H16HgNS(1+) | MND = 2
Hg       -2.07111555136202    4.22633176647645    6.78501186162292
S        -1.60784089012850    2.01742352110101    5.37436182708683
N         3.22603749764439    2.31157689918946    1.79645476766626
C        -0.21129871134731    2.14642147458721    4.36489421361970
C         0.62103383511136    3.26860742243413    4.32544053626402
H         0.39943693599003    4.12457184035985    4.95750316677928
C         1.72002311093906    3.30615332333490    3.49710582259310
H         2.32877922150027    4.19723875136353    3.50771925483247
C         2.02894155769284    2.22375989020067    2.67559222234428
C         1.21023901547940    1.09985980263601    2.70811468047720
H         1.39903151385209    0.23317898072217    2.09870472860947
C         0.11139796220261    1.06437203662342    3.53852289642696
H        -0.51768157678639    0.18923176143918    3.55722251842808
C         3.42022442008812    1.10280329859819    0.97446333761534
H         3.56803514885744    0.23103434946182    1.60871846543547
H         4.30446116078481    1.22987367041296    0.35140686615956
H         2.56117919268305    0.94253132768739    0.32591581828267
C         4.42938623404967    2.48828871572044    2.63604018024327
H         4.36291326982669    3.40407728605230    3.21771192836699
H         5.31927099083047    2.53521941339722    2.01014273723228
H         4.51967480050228    1.64873583565750    3.32359712795812
C         3.07193408999826    3.46132998248999    0.88064979308093
H         2.98785496103977    4.39083842047865    1.43757577939418
H         2.16967530079539    3.33323163753514    0.28462435888789
H         3.93249210226310    3.52891296022012    0.21679913926498
C        -3.36371938314819    5.35624976531612    8.25444944755813
H        -3.95733314959057    4.60041666477451    8.76781667305280
H        -4.00799419848317    6.04029875230741    7.70640159809464
H        -2.74793886126831    5.90383044940816    8.96323825261686

