40
CSD_code = WAPGIF | q = 0 | S = 0 | Stoichiometry = C11H24N2NiS2 | MND = 4
Ni        0.35203424825742    7.86095570848854    1.80020238438915
C         4.33663341145441    7.25053937874878    1.49106172736002
H         5.12419819439114    7.89682827083607    1.10417616906757
H         4.67919779622590    6.22009665308735    1.46210323920982
H         4.13596640387646    7.51214670618508    2.52783577461458
C         3.06588080804152    7.39191961945664    0.66625241919846
H         3.24954953526539    7.03036748369941   -0.34969149347188
C         2.58993501137535    8.84290377326073    0.65085384336608
H         2.69352352093582    9.23509741166358    1.67143350983623
H         3.23074153496500    9.44294405640384   -0.02010728225308
C         1.01420537438830    8.57082855314099   -1.13776580722932
H        -0.00665651791333    8.74312490613903   -1.46998096059021
H         1.22271663959297    7.50658728015308   -1.22902840016183
H         1.69601271456000    9.13205223494526   -1.79154917244680
C         0.78202148511689   10.38736177620993    0.42123672361261
H         1.36825494437340   11.02522302638393   -0.26216332764807
H         1.04215786948310   10.67607065922861    1.44442603292391
C        -0.70728108087902   10.68210501666744    0.18602010629940
H        -0.91673456838496   11.65302022513869    0.63989894917217
H        -0.90229983561522   10.78797669189141   -0.88323541924354
C        -1.69054265251243    9.62974201013539    0.72065169825999
H        -2.69080845303962   10.09267038692163    0.77276639550002
H        -1.74780476928942    8.80362780166246    0.00499049074386
C        -1.40827192672517   10.06875954776025    3.06833338641140
H        -0.77202857242381   10.91428495797931    2.81834743361990
H        -1.05656570989591    9.64950309021518    4.00905306152589
H        -2.43865635515710   10.42915087328492    3.19379666311362
C        -2.29377226405252    7.96625953860381    2.32536806939046
H        -2.27654789112107    7.25915680876706    1.48513676756524
H        -3.31557765877640    8.37713505665281    2.41461041793894
C        -1.93332547525296    7.18724116880689    3.58828289446775
H        -2.19265233596541    7.75621893684438    4.48582525678341
C        -2.64881693567352    5.84474541596996    3.61591451012188
H        -3.72872207759193    5.97983839999327    3.55910826078136
H        -2.40631530488141    5.31943741687452    4.53530279624302
H        -2.32017526396778    5.23259751103293    2.77874894009034
N         1.17583677606077    8.98507377194017    0.25465013347896
N        -1.34086059509041    9.05093323602212    2.02143841862366
S         1.74932692987156    6.31065248096871    1.37576377910270
S        -0.10937695402607    6.91342215783604    3.65123161023211

