37
CSD_code = WAPHEC | q = 0 | S = 0 | Stoichiometry = C10H22N2NiS2 | MND = 4
C         4.18545412964021    0.75285881627500    7.09047239024625
H         4.38211998779629    0.05338103350961    7.92081489920638
H         3.12978436385077    0.67464040233724    6.80986506225018
C         4.43984823205159    2.19157048264153    7.53092035214703
H         5.43887165864041    2.29647180233056    7.96206392497825
C         3.40769669109125    2.64727679929970    8.55188834508754
H         2.40936369783924    2.60340383282184    8.12309120678329
H         3.60825195727531    3.67525920852384    8.83932067691596
H         3.44273954193973    2.01795393795290    9.44040874395100
C         6.40684678567019    0.27853946754383    6.30156374668808
H         6.78580754911877    1.23722427886045    6.65120355790972
H         7.00824133897934   -0.02519549031175    5.44634247224621
H         6.52664857434040   -0.46782933082251    7.09949964174384
C         4.54772053147262   -0.84456639798670    5.27859250455086
H         3.46004288294815   -0.90734231512240    5.36475003058609
H         4.97567968893023   -1.72523109010388    5.77930203379993
N         4.99853114370617    0.40106789266945    5.91760918353883
Ni        4.74349213375705    1.88863846602487    4.53624759702116
S         4.35567672183115    3.32142235647631    6.06309768039886
C         5.30154793046962    0.75285773297150    1.98202876902379
H         5.10489191174327    0.05337721785615    1.15168618207764
H         6.35721579483674    0.67464449909118    2.26264493793201
C         5.04715162290674    2.19156707726116    1.54157467458991
H         4.04813309102062    2.29646208559146    1.11041826337066
C         6.07931415138256    2.64727657703313    0.52061914731369
H         7.07764187979599    2.60340906720524    0.94942935110417
H         5.87875769311820    3.67525756430302    0.23318259910677
H         6.04428594665589    2.01795198723703   -0.36790075192836
C         3.08015061484926    0.27853346968919    2.77092229300048
H         2.70118970600766    1.23721741924875    2.42128026637004
H         2.47875146067776   -0.02520338595750    3.62613974928951
H         2.96035601622221   -0.46783551432374    1.97298540730420
C         4.93927204686042   -0.84456826331903    3.79390587010989
H         6.02694952242649   -0.90734653565756    3.70774842130474
H         4.51131150357549   -1.72523327730915    3.29319829005197
N         4.48846338990035    0.40106542884400    3.15488641056515
S         5.13129810667210    3.32142269731507    3.00939606936452

