46
CSD_code = WAPHIG | q = 0 | S = 0 | Stoichiometry = C21H20AuO3P | MND = 2
C        -0.65095111090461    3.61017780959045   -1.65877206437344
C        -1.41023189143630    3.87496907808969   -2.95515744256399
H        -2.44392001240290    4.14300937272332   -2.68061782691553
H        -0.94987664713258    4.74140871085987   -3.43810876000342
C        -2.09237063942508    1.68855699275603   -3.49921380068096
H        -2.03112589553627    0.98897088386124   -4.33100548318032
H        -3.14600514263041    1.92421826526277   -3.29537510059806
H        -1.64654959159005    1.23900039127569   -2.60807502080469
C         2.72155238154438    1.37601409263766    1.86012921211025
C         2.40203286765445    0.77732519962521    0.64575089363067
H         1.61926533551040    1.19714425806795    0.02712912748221
C         3.09683888460875   -0.34795085980887    0.23580797141752
H         2.85049218148592   -0.81349127621402   -0.70641153870209
C         4.10565446097328   -0.86955677171205    1.02858037641240
H         4.64750150696130   -1.74613368481041    0.70555230347115
C         4.42825134293748   -0.26710409017362    2.23584625319782
H         5.21875989781401   -0.67385201010045    2.84947980962794
C         3.74103004154691    0.85587041340522    2.65491494990416
H         3.98951973780178    1.33434769747748    3.59295067250202
C         0.89117415732884    2.33474490684999    3.86219397393878
C         0.75834078161709    1.00870343837805    4.25610053591863
H         1.25155566150184    0.22552909018898    3.69734062485359
C        -0.00815465710244    0.69847411145029    5.36674401296037
H        -0.10875620653748   -0.33154834356506    5.67585956086566
C        -0.64690769506575    1.70090192352306    6.07709036323308
H        -1.24408034108332    1.45221444529757    6.94158829867942
C        -0.52920894982500    3.02350472116325    5.67527878598301
H        -1.03555349146835    3.80355948178028    6.22426947867169
C         0.23005376709305    3.34064330547999    4.56649242510124
H         0.32346830124101    4.36635478006570    4.23204173775922
C         3.09263763710240    3.94445209012881    2.99553141984483
C         3.47625051662426    4.00927330161368    4.33056624013072
H         2.96683287197455    3.40872158786448    5.07183811310892
C         4.50567508719190    4.85439290150192    4.70582067411802
H         4.80217976022553    4.90777517935177    5.74322103486621
C         5.15480991073987    5.62860140682384    3.75805330079350
H         5.95754500530753    6.28549648010194    4.05782849258346
C         4.77247338330539    5.56609823702649    2.42694002108259
H         5.27553488129140    6.17345077818501    1.68943230839529
C         3.74108971103712    4.72930201145649    2.04596666842412
H         3.42040501732268    4.67660813232806    1.01270138156859
O        -0.68229600277407    4.55573280330876   -0.81258865226556
O        -0.05171789045471    2.55360389288619   -1.44086019500172
O        -1.38931792347261    2.84033445089257   -3.90126560753839
P         1.79037605990157    2.84369900318318    2.37438709020630
Au        0.52062293925820    3.67415141013052    0.74392337979185

