37
CSD_code = WAPJAY | q = 0 | S = 0 | Stoichiometry = C13H17BCoNO4 | MND = 8
Co        5.39941182863191    1.11563453470085   11.26402669974126
N         5.18234341959718    1.11269929492059   13.35312253679510
B         6.61865151193090    0.90560153387584   13.10504705641705
O         7.33620555211152    3.05374696092264   10.31564523334631
O         4.54986966348784    3.05115724174794    8.80195956748525
O         3.17512529678086    3.95811617193450   10.34841055793810
O         5.66287552474291    1.58972335553545    7.49560407778472
C         6.56946043785028    2.28112788647678   10.65647535922787
C         6.65832165450143   -0.36092658196904   12.22676156650082
H         7.50037882684420   -0.91478660221883   11.83801480400631
C         5.35019090152182   -0.84380675994565   12.13041639102804
H         5.02482611205367   -1.77542205531251   11.69301657260930
C         4.48405685327350    0.09426217276169   12.72430068496298
H         3.43724665724217   -0.07430087540372   12.92078139926923
C         7.86577843114605    1.68280804604866   13.70477672492316
H         8.78799860655877    1.17390483979482   13.43465912033246
H         7.84056734115073    1.73175602823746   14.79188411371738
H         7.95663759485812    2.70358490521117   13.34209548391422
C         4.52597350154766    2.04185052898801   14.28410266827880
C         4.72450238954413    1.48947291682748   15.70136364003522
H         4.26601736193039    2.15351142205834   16.42891822642267
H         4.26829523614389    0.50572032895343   15.79327876606114
H         5.78231117030904    1.39833841426624   15.93198913092333
C         5.15655054933883    3.42972248016117   14.14979547249393
H         5.11909174657912    3.75328571880823   13.11013834925286
H         4.60230183184123    4.14618745546906   14.74987794673487
H         6.18639213699293    3.43339473195708   14.48523940387216
C         3.02871744962862    2.19006866083226   13.99521644152926
H         2.86731211041556    2.51103404305416   12.96826654395936
H         2.47547252720554    1.27379091755049   14.18762872591786
H         2.61898529108631    2.95541055102903   14.64916864286207
C         3.72129783755487    2.98848532838909    9.90263498503805
C         3.65032351955124    1.58529335960948   10.34336342458959
H         2.74333091553361    1.23399825220343   10.81534551289320
C         4.48314614944119    0.84019277271582    9.47967547852421
H         4.35458958142305   -0.19656580278645    9.19436830808472
C         5.00044247964870    1.79092782259548    8.47013038252696

