82
CSD_code = WAPKIJ | q = 0 | S = 0 | Stoichiometry = C34H41Cl2CrNO3 | MND = 6
C         4.80824330157479    7.69498331143623    4.73653069671651
C         5.37401963509805    7.65717001562108    6.04433019615324
C         6.76671316935458    7.70123473126008    6.21181935885612
H         7.38636807071197    7.76296481306448    5.32812212762614
C         7.31637463674866    7.66652401273453    7.46830441304100
H         8.38784892931111    7.70055542871023    7.59726871090983
C         6.48076303358620    7.58711022841173    8.57999090791967
H         6.90869101432888    7.55986423249408    9.57113879501398
C         5.11251313786166    7.54308357873411    8.42701393608608
H         4.50614601757115    7.48205980638451    9.31645088050732
C         4.51365387645306    7.57615459050989    7.16172806454850
C         3.07654357153477    7.53268102095147    6.95028284889115
C         2.19342101809562    7.45088865045379    8.03558595880642
H         2.58358327299591    7.41869980105750    9.03968338772956
C         0.82846310925077    7.40922159369641    7.86968952434702
H         0.18170606386246    7.34614526079871    8.73227035345965
C         0.28763777978946    7.44865256160678    6.59163099234266
H        -0.78170791912191    7.41704592494058    6.44754977470627
C         1.12408811704960    7.52835950704743    5.50204112078238
H         0.69241853335018    7.55788064839016    4.51653052188282
C         2.51760362822404    7.57152963462686    5.64539782833391
C         3.39869711877358    7.65529581822995    4.49452140505532
C         1.87383450028627    7.68226288026562    2.61852502150485
C         1.20602849424594    8.88767186903334    2.35028028423857
C        -0.03748424759575    8.84380791986212    1.73903070160102
H        -0.56569708241073    9.76386094439995    1.54108768293657
C        -0.61686815089461    7.64074322473403    1.38541414340531
H        -1.58845992433772    7.62408262772737    0.91404036674695
C         0.05268364512807    6.45906630095715    1.63734729602872
H        -0.40545128957850    5.52206926271594    1.36016194285214
C         1.29800448757763    6.45704324083651    2.24653770378533
C         1.81067205802772   10.21183084365212    2.75127658354389
H         2.85442809819976   10.03649210195706    3.02721161889663
C         1.08088451647246   10.79221458516396    3.96605612848822
H         0.02693487676898   10.94359633977186    3.74190890795462
H         1.51486295524221   11.75115711269700    4.24300031433055
H         1.15651068948544   10.12113366261889    4.81931962180949
C         1.79039925940867   11.20347125432948    1.58701849614092
H         2.19823450441513   10.73640474823343    0.69390364131323
H         2.38766716452308   12.07892037723731    1.83253613358072
H         0.77859769214494   11.53727594033903    1.37026790268872
C         2.00196569465298    5.15273459295553    2.53502834520524
H         3.03157835818980    5.38169939064788    2.82464774614895
C         1.32477429826432    4.41990564551323    3.69674091561342
H         1.35623388557074    5.02042408584087    4.60362016688428
H         1.82989297172008    3.47571820917757    3.89159511567737
H         0.28339611965858    4.21059295784195    3.46071760455417
C         2.04795082180561    4.26245296932221    1.29221981549716
H         1.06249880280973    3.87270187842620    1.04908147327260
H         2.71050771852149    3.41690132570874    1.46387421009215
H         2.41367912354532    4.83088469467936    0.44065147970043
C         5.35364500242288   10.75541504241045    0.89165077844970
H         4.53901989006451   10.62358951726553    0.17945585107016
H         6.26872009086054   10.30987982946598    0.48384323635952
C         5.59494833596604   12.21618656716354    1.30018846392142
H         4.73639223666093   12.83820666019305    1.05396508640396
H         6.46629388253056   12.61802752268263    0.78810338458538
C         5.80588759682184   12.13983075364234    2.82176378357976
H         4.97619191829902   12.60737037338766    3.35091645721528
H         6.73091345363783   12.61339329028349    3.14103641926844
C         5.82425075825409   10.63370583549242    3.09671799740389
H         6.83916288907811   10.22706493424895    2.99781470102494
H         5.41334468612154   10.36151949369889    4.07138944467661
C         5.54918496301109    5.07083456627834    0.60154230289713
H         6.42443061283995    5.62105828683802    0.23618465800559
H         4.71864192102855    5.21250121996045   -0.09011522812257
C         5.90107622021761    3.59859871519623    0.86065774636498
H         5.08388117922155    2.94355367367755    0.56431227861333
H         6.78873329381482    3.31261653060085    0.30101939779253
C         6.13425330334466    3.54078336229936    2.37987013490233
H         7.10007174255212    3.11445106004325    2.63939031620729
H         5.35500014641771    2.95709544819390    2.86874359293237
C         6.03919612504614    5.00888608306648    2.80474683255462
H         5.62081443597140    5.14946115031280    3.80382244370507
H         7.01824445143871    5.50145732796048    2.74243598448166
Cl        3.96523092517754    7.88876620376002    0.18199084421157
Cl        7.07287781731086    7.94685616997973    1.20443856948422
Cr        4.96495923766575    7.83007295213605    2.03035743441907
N         3.14414318687756    7.70538578032453    3.20430528270052
O         5.47560651556795    7.76945066241168    3.64167271977355
O         5.14839988483361    5.59544739892844    1.86634691535292
O         4.98663413869516   10.07840743028815    2.09284900155466

