25
CSD_code = WAPKOO | q = 0 | S = 0 | Stoichiometry = C10H8Cl2N2S2Zn | MND = 4
Zn        4.91149545705395   -0.51920022144124    2.68657355080030
Cl        6.11646599150292    1.25702468333053    3.13241497364779
Cl        3.47619104517217   -0.80643383273893    1.05060891252776
S         5.35633126178289   -2.92182882542305    5.04925674457934
S         4.54169351055823   -3.63382746768729    3.32100222566192
N         6.30949189756011   -2.04592236822661    2.12261688159040
N         3.88508012979315   -0.73302363019859    4.56288878604478
C         5.78870524726350   -3.26427796615621    2.11126842296415
C         6.16971846934149   -4.24599826262698    1.20860415901275
H         5.69793502724577   -5.21461204494802    1.23583497655100
C         7.15348185232471   -3.93025283708521    0.28769086034408
H         7.47053531780787   -4.66096384864402   -0.44066102328421
C         7.73277075157615   -2.66893759834185    0.32625259370943
H         8.51409783679798   -2.39313815680126   -0.36291782035458
C         7.27628993776721   -1.75509959288863    1.25912014549384
H         7.67735696517941   -0.75346611894762    1.33018001180942
C         4.35515334074345   -1.53019053807698    5.50965180262010
C         4.10521189302334   -1.33061591291531    6.86269626024096
H         4.52621851026849   -2.00656784384462    7.58901636285963
C         3.31703463958364   -0.25531692527523    7.22642828546407
H         3.10711726947231   -0.06137799206532    8.26719947138272
C         2.78904155097407    0.55797935198202    6.23118706612859
H         2.15541859101172    1.39536639167913    6.47289750723447
C         3.10267178344751    0.28369901091597    4.91369008776644
H         2.72939172275340    0.88948254643136    4.09969875521023

