55
CSD_code = WAPKAA | q = 0 | S = 0 | Stoichiometry = C9H24N9O12Y | MND = 9
Y        -0.25451451056950    1.07905987873615   -0.11262314342904
O        -2.01540186181290    2.50061310697317    0.01694603407444
O        -0.47213878056245    1.37166772908469   -2.38864248014655
O         0.31137679237425   -0.95166815648811   -1.16901783080368
O         0.48516466874920    3.20919232946894   -0.73631441528876
O         1.73799056626739    1.50019294050620   -0.77963849797465
O        -1.53421784612929    0.35184348913880    1.55103733966690
O        -2.19399590183047   -0.06226721312315   -0.41507638832713
O         0.55668327833818    2.00785165088775    1.67432388603258
O         1.07589182805423   -0.02384599306826    1.33944472597683
C        -2.19778219729265    3.31868005550393    2.65737742063245
H        -2.60972654141122    3.84267586079672    3.51657960972249
H        -1.16945294446678    3.01231796956481    2.86551996812324
H        -2.79428193421941    2.42905399813810    2.46122339419560
N        -2.26731304202293    4.19451515948112    1.50390855142041
H        -2.09802921630845    5.17271138762145    1.67506423049260
C        -2.09331908696848    3.72155715770599    0.24956445686912
N        -2.15664615164986    4.64212488509249   -0.73746134174040
H        -2.08691731266188    5.61631052912902   -0.48916808183983
C        -1.92289294087610    4.31609992933199   -2.12483618905570
H        -0.95856195659825    4.70240980887607   -2.45911830807844
H        -2.72251826834677    4.73356518074860   -2.73923658066885
H        -1.91328277116955    3.23176239537640   -2.21737235019597
C         0.96930724025128    1.52933367471736   -4.81092962880957
H         0.68136097208756    2.27192142782998   -5.55846839237124
H         1.81135605439249    0.94959834766283   -5.19119782672974
H         1.27555938618550    2.04848733085718   -3.90521672517228
N        -0.13922071193032    0.65090163322157   -4.51362090550803
H        -0.49464097678024    0.09897234406236   -5.27636927874596
C        -0.81905590445478    0.65211996729441   -3.34781316307900
N        -1.92788787938209   -0.10985002988684   -3.27223463805290
H        -2.30018682304109   -0.18005003659171   -2.33259191920971
C        -2.31514100831023   -1.12866667735032   -4.21844805854466
H        -3.21173775944978   -1.61643437718344   -3.84660066749123
H        -1.53620015782902   -1.88687047981485   -4.34606026875930
H        -2.55010682693899   -0.68711017929577   -5.19083903800595
C        -0.43509186191976   -2.69483599842263    0.85246761532768
H        -0.66727277129862   -3.70472062375495    1.18745902283204
H        -1.19056770083685   -2.36592419229511    0.13986072945956
H        -0.42846901763226   -2.01453860231903    1.70923933996134
N         0.84357070634988   -2.71180102047251    0.17295596948636
H         1.60104745413739   -3.12380792112453    0.69591842913515
C         1.15686236491253   -1.74872255816985   -0.73248673539092
N         2.40378092617068   -1.83221493835211   -1.25327123220464
H         3.09798728243861   -2.36328503522922   -0.75147990284130
C         2.90146437327660   -0.87252657874552   -2.21275272007310
H         3.52985744700436   -0.11824094836955   -1.73652962516936
H         2.04442389606467   -0.37219864948351   -2.65707353276193
H         3.46943418796733   -1.39463673854329   -2.98385614175844
N         1.42262237517878    2.60712813994470   -1.25074104233991
O         2.04537427388581    3.07383196219449   -2.16518406870181
N        -2.47681226351009    0.17140368201180    0.77193416833878
O        -3.60931088191177    0.16433822768305    1.15077847447185
N         1.15080903803880    0.98610635663597    2.05483376542413
O         1.77737069788744    0.97826841178944    3.07333398741612

