59
CSD_code = WAPKOQ | q = 0 | S = 0 | Stoichiometry = C32H19Cl3N2O2Zn | MND = 4
Zn       10.53884938853238    5.73730457389337   -2.77509785693219
Cl       12.18043328105646    5.34322381304152   -4.05882880971727
Cl        8.77151467681514    4.57160025953297   -4.31412269511800
Cl        6.76796399367014    9.68069882532558    1.92999388758496
O        10.66275239512527    6.28381987328242    1.29908810683039
O         9.37045577198085    7.15227575849488   -2.62994410484532
C        10.23023300151398    6.42513593224807    0.03303015978486
N        10.83037977817775    5.60071559802576   -0.80795124773685
C        11.73115157975632    4.87370674527976   -0.06108678129421
C        11.61376186443206    5.31225202621000    1.26655130576628
C        12.38275669600624    4.78538391943388    2.28605040193103
H        12.28325928047507    5.13069895140952    3.30167540328846
C        13.28394877497528    3.79816424669868    1.92590288015589
H        13.90904649355638    3.35714481539444    2.68673126383954
C        13.40983430731045    3.36118420777136    0.60757718602956
H        14.13236673696137    2.59312264262195    0.37882193654005
C        12.63860449240165    3.88586851051861   -0.41190482513122
H        12.73756719875841    3.56145776982975   -1.43551991212383
C         9.19708588523790    7.36835334306466   -0.25609276126975
C         8.78272150789023    7.63167090929236   -1.58880369201670
C         7.62438897771266    8.46378755669278   -1.77467011799277
C         7.02512718045600    9.07288087641303   -0.68871435838846
H         6.16681221689226    9.71030633313744   -0.83209268209663
C         7.52152211952218    8.87293538555237    0.59704402153010
C         8.57200329514341    8.02047957742967    0.82421134360039
H         8.92087268634351    7.82988696363987    1.82627048852707
C         7.12044993326375    8.50244384102470   -3.12477891197270
H         7.81074027331500    8.09249718937155   -3.84607155416658
C         5.89677643498033    8.84669937702669   -3.56037290227574
H         5.16827908958343    9.30785648621114   -2.90619573134359
C         5.48356647038403    8.51263095584305   -4.89522206580823
N         4.50657463213334    9.17373633505328   -5.59443696557387
C         4.29188516666886    8.53284727085509   -6.78532806629237
C         5.16616985115398    7.42287277670512   -6.86133612443521
C         5.92098994267192    7.42162847729730   -5.65046213954259
C         3.39860049704637    8.82198674447245   -7.80950317996875
H         2.72086783970681    9.65962485982291   -7.74454974238520
C         3.39787447301001    7.98953528084631   -8.90836241128867
H         2.71433176441426    8.18529324104131   -9.72106852188608
C         4.26016599695699    6.89201506248156   -8.99450398951995
H         4.22338979112104    6.26744746794955   -9.87464770134215
C         5.14483375487248    6.59528125333611   -7.98285836098845
H         5.80990996298378    5.74750805012717   -8.04308187098644
C         3.81749104839952   10.36852774765475   -5.18777263453911
H         3.84316740744396   11.09046687280770   -6.01206609531383
H         4.35759126175668   10.81134682460418   -4.34480162334603
C         2.38220426870571   10.10165672724453   -4.79504724943057
C         1.40077713376520   11.04875868248486   -5.05427995530247
H         1.66736469631093   11.97481135072222   -5.54433663938142
C         0.08707155377464   10.81534715987940   -4.68888689421390
H        -0.66798962313554   11.55919902412161   -4.89584725222468
C        -0.25902338542107    9.62868829261673   -4.06537839655255
H        -1.28504364282085    9.44382480726371   -3.78461131378184
C         0.71465830708276    8.67969732469388   -3.80576401713887
H         0.45083501835274    7.75170394511202   -3.32067450881703
C         2.02953439792156    8.91502273565001   -4.16629925554148
H         2.78322636419232    8.16771547949217   -3.96350097968867
C         7.63486288656736    5.61723242438426   -4.87187262655696
C         6.86375284890656    6.46563651791217   -5.25059885887611

