57
CSD_code = WAPMUW | q = 0 | S = 0 | Stoichiometry = C28H24N2O2Zn | MND = 4
C        -2.98314838713922    0.06951357361394   10.53894010903029
C        -1.91980239222950   -0.63136795712828   11.16773793716705
H        -1.34401931483123   -1.30250540743505   10.54789420528719
C        -1.62472069635457   -0.46619651148983   12.49247529981228
H        -0.80255663311683   -1.01147189748503   12.93392385980983
C        -2.37925486629074    0.40504726861309   13.28672363889406
H        -2.13961683890018    0.53005619702209   14.33161807642024
C        -3.42387705940041    1.08493515586987   12.72314787190979
H        -4.02006733917255    1.75515084549329   13.32831458325741
C        -3.75653542194698    0.94783336101913   11.35956798986557
C        -4.88523213054223    1.66733359368597   10.88831927921573
H        -5.43891074300922    2.21628627105069   11.66102997386106
C        -6.58778750978645    2.39686501234491    9.44289329593687
H        -6.84733544209299    3.03153892812195   10.30237294705174
H        -7.36349720205924    1.63177628112341    9.32480231177792
C        -6.51485214650131    3.21989232381608    8.18642323077997
C        -5.94844267928162    4.48764573794795    8.21586932913388
H        -5.57843008200251    4.88283426240047    9.15073632180878
C        -5.86189205599458    5.24227064276422    7.05977453145088
H        -5.42957354414106    6.23211491768555    7.09451011082110
C        -6.33372583303225    4.73382230378388    5.86117279797172
H        -6.26005846249572    5.32126130390469    4.95751279885763
C        -6.91413784427501    3.47781383182048    5.82745822849121
H        -7.29570370154743    3.07954919890360    4.89902587042373
C        -7.01236220676547    2.72833484816763    6.98693150796983
H        -7.48839996529255    1.76026245677868    6.96119508857195
N        -5.33426465066729    1.70971197222401    9.68249324163494
O        -3.18500690586328   -0.11554720020801    9.28281929145581
Zn       -4.34838730638248    0.82280065481545    8.21614165973057
C        -5.71362069008115    0.06951865495573    5.89333841254849
C        -6.77697287124905   -0.63135144230306    5.26453947735011
H        -7.35275217417333   -1.30249521896041    5.88437959938266
C        -7.07205635108483   -0.46617060404089    3.93980379672473
H        -7.89421046006257   -1.01145669582567    3.49834782340658
C        -6.31751808903632    0.40507210262109    3.14555842354337
H        -6.55715063519420    0.53008305926971    2.10066273574759
C        -5.27289561278711    1.08495646237362    3.70913806576982
H        -4.67670588200977    1.75517572731005    3.10397492318180
C        -4.94023707382009    0.94784687415570    5.07271687007409
C        -3.81154178074838    1.66734696606693    5.54397048215372
H        -3.25785633778907    2.21629177373842    4.77125923529078
C        -2.10897467568506    2.39685272440398    6.98939564185500
H        -1.84941182038547    3.03151302492435    6.12991021891512
H        -1.33327590978658    1.63175512979382    7.10750190560850
C        -2.18191145409600    3.21989633097697    8.24585494804359
C        -2.74830020268247    4.48765846809824    8.21638675356615
H        -3.11829505839208    4.88284208720768    7.28151067049681
C        -2.83485181068258    5.24229846404168    9.37247158116522
H        -3.26715403700135    6.23214939340043    9.33772038679956
C        -2.36304045644099    4.73385649514335   10.57108496910386
H        -2.43671007593097    5.32130731024243   11.47473713168736
C        -1.78265156316903    3.47783803907906   10.60482235079427
H        -1.40110468478043    3.07957562828495   11.53326355548751
C        -1.68442572399151    2.72834393477359    9.44535880051982
H        -1.20840413666272    1.76026403770651    9.47111102365243
N        -3.36250430560590    1.70971269393430    6.74979466969015
O        -5.51176676555817   -0.11554339059666    7.14946015904451

