53
CSD_code = WAPNOQ | q = 0 | S = 0 | Stoichiometry = C22H21N7NiO2 | MND = 4
Ni        1.42129873570694    0.01632308863137    1.80074063951145
N        -0.90726782375361    0.03538276982014   -0.29150614041305
C        -0.53743614234824   -1.22191206092018    0.09809305642628
C        -1.40907963430042   -2.09788948356095   -0.64470043564326
C        -2.25954433885668   -1.30490354213720   -1.44538789909732
C        -1.92977109287773    0.04429525202489   -1.21056136340295
C        -2.18689068765293    1.39863170333679   -1.50013876986636
C        -1.29446605430648    2.17656162828550   -0.73097661156063
N         0.41863409414390   -1.38001306658446    0.96382573082166
N         0.49314189053767    1.42753132312589    0.90772906954123
C        -1.38570978791046   -3.49068969084160   -0.55663610173872
C        -3.25163547035192   -1.78312947888515   -2.31501446981076
C        -3.15179226064392    1.89428889326583   -2.39034913640914
C        -1.19485538060013    3.56838416820125   -0.69866808616022
C        -0.47058645508519    1.28580176413031    0.04773450978946
N        -1.33091109980924   -4.63312636722016   -0.45245718956410
N        -4.06177332199983   -2.17564109691902   -3.02402261154911
N        -3.93921889787172    2.30085177075488   -3.11680142907498
N        -1.07649524354938    4.70911412780695   -0.63756329137448
O         2.34269127566608   -1.30850548992924    2.67668406665467
C         3.28375475989204   -1.20930506446730    3.51629146947247
C         3.82315623624490   -0.00176184969544    3.95822578078197
C         3.33958088470001    1.21352008955082    3.47500451277699
O         2.40523434128745    1.32684154653826    2.62970886195389
C         3.84490173447132   -2.52793913759057    4.06299116396590
C         3.95711496785582    2.52331632906748    3.98063750756019
C         3.10782629213851   -3.70594886294482    3.42235065936695
C         3.63926254212089   -2.56476892719781    5.58111812659777
C         5.33626340877436   -2.61623400387082    3.72177056891717
C         3.73882847896780    2.62216910638803    5.49438608848351
C         5.45412795577353    2.53201717997027    3.65335571626115
C         3.28098796966102    3.71067327495435    3.29177955378286
H         0.63185369782683   -2.34895521473997    1.19870791097145
H         0.75739334157048    2.39252450881071    1.10399327990880
H         4.62075839195506   -0.00786673273836    4.67717734788978
H         3.23270883791841   -3.69308070279643    2.34238534295981
H         3.50309542209256   -4.64312608193057    3.80566359235932
H         2.04519491606757   -3.66024772440829    3.64759787531669
H         3.98957837154182   -3.51688085226642    5.97292394681469
H         4.18742050056159   -1.76881763762568    6.07735704690355
H         2.58451901179334   -2.46017300966707    5.82489394256971
H         5.48647812430588   -2.53556496811264    2.64762424521891
H         5.90476916856184   -1.82885111359643    4.20859302136462
H         5.72899479552397   -3.57500316067787    4.05233630653641
H         2.67786860599553    2.57687986833699    5.72952045172148
H         4.24283803595869    1.81801388600560    6.02322011305995
H         4.13107053783695    3.56919289098174    5.85778679324086
H         5.98156521280469    1.73693537984644    4.17275376716055
H         5.61087759675720    2.40805232805945    2.58425373413417
H         5.88699504081480    3.48271727093115    3.95592945617262
H         2.21504782782231    3.72068860781592    3.50565835294569
H         3.71438402682819    4.64169872664459    3.64788780280662
H         3.41641665943431    3.65512783805533    2.21439212294089

