60
CSD_code = WAPPOU | q = 0 | S = 0 | Stoichiometry = C34H24AuP | MND = 2
Au        3.24477323549026   13.83161012410791    5.09223996618707
C         1.58015838251016   14.92234876522898    5.56651329033762
C         0.89371706828070   14.71693030051596    6.76594914192772
H         1.26560733855120   13.97206048686852    7.45971471055419
C        -0.24332295810176   15.41680028122553    7.12044939238747
H        -0.73256506342859   15.21465983293764    8.06479086806594
C        -0.77697313792557   16.38524107903978    6.27217637984941
C        -1.95138114650666   17.12321208046569    6.59646946028355
H        -2.43671719240097   16.91610287974465    7.54100946045815
C        -2.45053432510996   18.05503838977937    5.75251289126605
H        -3.34375000019898   18.61056039237882    6.00482078732085
C        -1.81632165462582   18.33349226417733    4.50646718073083
C        -0.64379395257543   17.61505242782287    4.16172365583468
C        -0.12106366076803   16.63720656302814    5.04343598818436
C         1.04921743539497   15.90759781201860    4.70766995914477
C         1.66895907920787   16.21322630192784    3.45950409209495
H         2.56944902537097   15.66565607956794    3.20373988376756
C         1.17837215118404   17.14596472797169    2.61210708282247
H         1.67271423153569   17.35473346278485    1.67227734611596
C         0.00026025864593   17.88127740614214    2.92887761194486
C        -0.53246358584207   18.84593109564805    2.07275508031102
H        -0.03854965423413   19.04680602675989    1.13184096679502
C        -1.67773347183682   19.53897733012650    2.41789413046860
H        -2.07867733287472   20.28277669519805    1.74323887987256
C        -2.31448687465175   19.28896807956891    3.61940173412214
H        -3.20967790300170   19.83549711500762    3.88253569004744
C         5.69419521637882   11.37559159618439    5.59414435830886
C         6.86846651599463   11.47027569066585    6.33208536048754
H         7.52463813879263   12.31940611496489    6.19959486219396
C         7.19482697287514   10.47045974088273    7.23150045208578
H         8.11121007743285   10.54034923663137    7.79893253134876
C         6.35202096297455    9.38577774521763    7.40758573194500
H         6.61374780075360    8.60801647894823    8.10917940774124
C         5.16716772817300    9.30158754192238    6.69151213969337
H         4.50418131311120    8.46176359523641    6.83751404300384
C         4.83276488453180   10.29722553043657    5.79542469725617
H         3.90572938734948   10.25022508506413    5.23728875823785
C         4.96583011821777   11.82667285529870    2.87359279932784
C         5.51605159169720   10.57973892186568    2.59736450433988
H         6.05170506889258   10.03879655364462    3.36561206193528
C         5.36735272181597   10.02991163936963    1.33665429717923
H         5.79412590082563    9.06082866365896    1.12290509511918
C         4.67618344555304   10.71563940727189    0.35096193511781
H         4.56387918131385   10.27955152081315   -0.63046428707348
C         4.12452934074533   11.95711853190179    0.62447375117557
H         3.58055908468014   12.49023399592269   -0.14089975878396
C         4.26592204380512   12.51008800209183    1.88278169442867
H         3.82800435985592   13.47324027196017    2.11328971405169
C         6.58492027038644   13.70468247124205    4.19840275719747
C         7.71012914543910   13.20626786186123    3.54700668412628
H         7.71657115547259   12.18562995246845    3.18924153199488
C         8.81126966607927   14.02026863068015    3.36291463386669
H         9.68591408045571   13.63475352397027    2.85993307425816
C         8.79475928962616   15.32945581298603    3.82065324399563
H         9.65789715264092   15.96126038928434    3.67263283227709
C         7.67417179880224   15.82865308179155    4.46286644606101
H         7.65986766427607   16.84917257097695    4.81526006273383
C         6.56801134304128   15.01863388676589    4.65117179871668
H         5.68268669578008   15.39734660032101    5.14701258503386
P         5.11239359015855   12.67584849765972    4.47375456972974

