69
CSD_code = WAPROX | q = 0 | S = 0 | Stoichiometry = C28H24CdN10O6 | MND = 6
Cd        6.95619184463158    4.35523519986536    3.31043591639076
N         7.82459636037714    8.64363561741136    1.73287852676389
H         7.69644706607940    9.57561647554118    1.37144898365491
N         8.72969091349251    8.40777503188043    2.68979369250501
N         9.04062713351728    5.10241031305510    4.07291616229780
N         7.73409870330724    6.50506901429762    2.08201031050245
N         7.98505373175800    2.68291723949622    1.68114387414132
O         7.22792144576835    3.59988128687438    1.30765799722084
O         8.41929414594421    1.89226232332942    0.88406478441017
O         8.29245852483534    2.62602600326149    2.87691374330363
C         7.22396226324676    7.48541801119233    1.36157161367769
C         8.64991210954927    7.10291244835152    2.88015390947331
C         9.44027805266073    6.35125625034708    3.83975324364873
C        10.55460891041987    6.91421886648007    4.45814403692938
H        10.82855568123344    7.93218249764291    4.23289086240162
C        11.27833995743848    6.13468553563301    5.34188761076065
H        12.14854605643330    6.53674700884604    5.83954221487076
C        10.86971621123184    4.82948956787624    5.56709107036419
H        11.41450523044817    4.18571720409451    6.23919111518026
C         9.74014249907074    4.35784977633054    4.91192043615766
H         9.37879576675155    3.34870398742349    5.05485749033834
C         6.20159444499697    7.37932792664045    0.34322285140032
C         5.41383446029698    8.47587563795825   -0.00457725348952
H         5.53987697420215    9.42285672427749    0.50018676561489
C         4.43614398498641    8.34619966961002   -0.97117608224720
H         3.82514025143801    9.19986812762498   -1.22686723862852
C         4.22574697606962    7.13302386519022   -1.61600947448445
C         5.01978719530052    6.04493104837658   -1.26417149804762
H         4.86784107474087    5.09629181908819   -1.75665963938758
C         5.99510094683941    6.15562720066430   -0.29529909559704
H         6.59930117909126    5.30674473983454   -0.01648284391637
C         3.17114294420829    6.98738004251013   -2.66722883555097
H         2.53178538147229    6.13416515046022   -2.44806887012634
H         3.63297892292239    6.81119007648688   -3.63813135115406
H         2.55662510299331    7.88130018668465   -2.73517036385684
N         6.08779208688422    8.64367581867529    4.88796105416151
H         6.21591562367659    9.57566578272668    5.24937865373773
N         5.18270755451934    8.40780184320933    3.93103630358845
N         4.87167321052839    5.10239692345284    2.54803035414379
N         6.17823622558540    6.50508989812185    4.53890958273539
N         5.92749885697283    2.68283208223684    4.93972364615963
O         6.68458571440967    3.59979464625124    5.31327943630587
O         5.49349254415248    1.89193036505426    5.73668276605891
O         5.62018393429102    2.62595842055735    3.74392198071607
C         6.68837779414466    7.48545209216738    5.25932682141806
C         5.26245137283521    7.10292873610644    3.74072967810769
C         4.47205981007143    6.35125938661523    2.78116304876890
C         3.35773454012864    6.91423463771619    2.16277698135397
H         3.08383719269342    7.93221900661382    2.38798976062814
C         2.63395267311633    6.13468608034234    1.27908909421987
H         1.76375914164486    6.53676198034373    0.78142857833862
C         3.04254667816179    4.82947550093428    1.05390486525431
H         2.49769496766947    4.18567964460611    0.38187743013393
C         4.17213952243526    4.35783546847628    1.70904398769686
H         4.53339249472520    3.34863889394967    1.56622326571270
C         7.71070436999125    7.37934985604022    6.27771374824495
C         8.49849944672550    8.47586791151813    6.62552985521469
H         8.37251578830781    9.42284863378863    6.12074575952738
C         9.47615268952737    8.34615372142260    7.59216270871127
H        10.08718329666186    9.19979783162444    7.84787058802145
C         9.68647611137127    7.13296977309080    8.23700695717000
C         8.89238658181126    6.04491493813433    7.88516485267030
H         9.04426920926204    5.09627527826601    8.37766800349422
C         7.91711101772510    6.15564672259078    6.91625885589577
H         7.31287963865591    5.30679053490070    6.63743043347960
C        10.74102823555707    6.98728691581698    9.28827251913128
H        11.37983303367090    6.13354167475558    9.06960503931103
H        10.27909513459690    6.81197742456086   10.25928648461356
H        11.35609105984221    7.88086970068848    9.35567223961723

