79
CSD_code = WAPSEN | q = 1 | S = 0 | Stoichiometry = C36H40P2Rh(1+) | MND = 6
Rh        3.79469731125138   13.78129482918586    2.00297259424533
P         2.10123191195218   14.16619125318621    3.44484805406702
P         2.60824337323839   11.93045815802795    1.53591084802566
C         3.71277177602598   14.05573027621202    5.74172000034078
H         3.83227589451175   14.31868562556429    6.79504731236766
H         4.56756181724871   14.44849888029166    5.18766227438542
C         2.43133121303472   14.67974399245639    5.19651729866613
H         1.58742915270182   14.33298919338955    5.80451469305792
C         1.47771233285997   12.07369259686889    0.07059423102088
H         0.58402926159952   11.46811706296272    0.27094837237835
C         2.39240523855562   16.20236501255657    5.10641688919833
H         2.44228742740708   16.66722421110202    6.09104774400667
H         3.23801978635390   16.56004947060591    4.51107737317235
C         0.98403239147929   15.62138749199079    3.15873873644529
H         1.33504050260574   16.14669797338790    2.26716320062170
H        -0.03840526400558   15.29085022277912    2.96471598374433
C         1.08055714058795   16.52659590859518    4.39617298868815
H         1.02987859907358   17.57774392936335    4.11358224211640
H         0.24814026258791   16.32431663886276    5.07188912218455
C         1.05320128927182   13.52200779243226   -0.16360350481080
H         0.58974554754066   13.89133759490911    0.75925008129481
H         1.94377109363292   14.12234183937320   -0.36284912629330
C         5.42276897802657   15.28385189155792    2.52051180822256
C         3.36016587999758   10.35784077711338    0.91908778538937
H         4.43597333528644   10.53350718768285    0.82579326227949
H         3.21387200576629    9.54019716747930    1.62536340642052
C         2.28776133495649   11.40984509226335   -1.03934903060148
H         1.69538649896968   11.27635476001358   -1.94433751197256
H         3.16228423593269   12.02135191492886   -1.27937289751613
C         5.02733642824837   14.05584887914337    0.12434870638825
C         2.74093683560000   10.07380281008804   -0.45683468676650
H         3.45820405809418    9.57550664701650   -1.10864869596068
H         1.87402346629603    9.41962825053980   -0.35063305670508
C         4.10285934426195   16.30520851436779    0.47185757773996
H         3.01353811586398   16.39493497544070    0.50004259078491
H         4.52069544788536   17.27929189584704    0.21023132769391
C         4.52450541864431   15.22640387822296   -0.60193424997307
H         5.34426102485875   15.61057241326729   -1.21479688362332
H         3.68514210090447   15.00557107636044   -1.26207877632320
C         5.73771137316938   13.46269552146427    0.93661892291401
C         4.64471537378799   15.85184868358241    1.75679092040684
C         3.61058843181995   12.56554261737594    5.57367952328467
C         0.50799207263912   13.93448725857633   -2.58660201107280
H         1.55419876976121   14.13697258639760   -2.77058438853161
C         0.07937859108008   13.62469956429023   -1.30287971885481
C        -1.26847896107048   13.36345182484657   -1.08918444782488
H        -1.61170274961952   13.12232611658540   -0.09221456847585
C         4.26621932377858   11.92004738652700    4.53282694939987
H         4.92523366339259   12.48777470448065    3.88170934430211
C         6.79837049290567   13.33355465927797    1.94221043426997
H         6.74648487413090   12.39046771233510    2.48969922649241
H         7.76981732714637   13.38280455787297    1.44516364291831
C         2.79747632760193   11.81677288243449    6.41687753994757
H         2.29212806236322   12.30072739456067    7.24014975593721
C        -1.73330511189316   13.72528621861021   -3.41354360564717
H        -2.43602428901798   13.76585922326377   -4.23139459090979
C         1.37398885811547   11.59520492623677    2.82604007409801
C         1.03411112024044   12.69748076269680    3.61283388711121
C        -0.39237737078060   13.98613140032608   -3.63644561526718
H        -0.04629527142191   14.23020985566000   -4.62952234395208
C        -2.17012068287546   13.41389516567323   -2.13674422990843
H        -3.21511384212762   13.21121291217128   -1.95684029824438
C         2.63655893414165   10.45791584351868    6.21761231657187
H         1.99858016471464    9.89042345365494    6.87790641986690
C         3.30028994542046    9.82285290447257    5.18130435275480
H         3.18472650279079    8.75953455352547    5.03650659824849
C         4.12327770257248   10.55506900203873    4.34378896851690
H         4.67282097917106   10.06062812873117    3.55616580334431
C         6.63181280493030   14.55788144340056    2.92800325706666
H         7.48465811680043   15.23388182984863    2.82991139147678
H         6.59683584176193   14.20873484848251    3.96124903341066
C        -0.72715179072399   11.41736855274431    4.62116547990971
H        -1.55224928618023   11.34691479315113    5.31326384582126
C        -0.03536835862795   12.60903193797633    4.49445061111931
H        -0.33394690558219   13.46725306990922    5.07992195428349
C         0.67273400822444   10.40484283940925    2.95260260256806
H         0.93344947700262    9.55211519117906    2.34243222249450
C        -0.36370805987040   10.31332213983218    3.86500941006770
H        -0.90178902877633    9.38453744746542    3.97657324570248

