69
CSD_code = WAPTEO | q = 0 | S = 0 | Stoichiometry = C36H28Cl2P2Pd | MND = 4
P         1.49566687428937    6.13405396042893   24.88034106437306
P         0.34285055448254    3.37767543617271   26.14338653127702
Cl       -1.34533330858738    6.71578284762507   23.62761146025096
Cl       -2.56505981322924    4.20352926387402   25.20863733921076
Pd       -0.49414772527107    5.10028943112070   24.97431159889113
C         0.50515827151941    8.65113709918887   25.22379585070423
H        -0.16296306055051    8.13628387398133   25.91012171517576
C         0.50112059673030    3.86773503783833   27.88092245351476
C         2.01454200036675    2.83782519255212   25.64213749897814
C         1.46358207516287    7.91306349032939   24.52851226132888
C         1.20984786268418   10.63381328262606   24.08177035348374
H         1.10775700200969   11.69341650405157   23.89952102660336
C         2.49827052546868    5.37289174748645   23.57680693578170
C         3.87154007753733    5.56250225147653   23.46079612392718
H         4.38796012542422    6.19055720382723   24.17474747865866
C         4.56563244038865    4.93264422016259   22.44447223107223
H         5.63203615427291    5.07761339500032   22.35091648304821
C         2.15032655705471    1.69134836477768   24.86129753300896
H         1.27714068126643    1.09450087969836   24.64069184791800
C        -0.61858807327945    1.83947136240513   26.13309894030291
C         1.82784700282569    4.55158837501864   22.67384629673704
H         0.74264230254786    4.41788848473172   22.77463260705639
C        -0.89009417931498    1.08409186640019   27.26486245030915
H        -0.51901608262723    1.39550934467361   28.23079326159316
C         3.15284239530412    3.60458125896519   25.92287067151278
C         2.51500911359299    6.01535136378172   26.39197284814816
C        -1.89762684051603    0.30786389463211   24.79139544171447
H        -2.30408163448103    0.01378929446659   23.83522114292025
C         3.13511863698777    4.81691944448462   26.76845842547598
C         2.28099543645324    8.53839110285495   23.59808877589426
H         3.00287214932443    7.96571038150520   23.03357513132891
C         0.38414878755826   10.00845154634725   25.00441216701469
H        -0.36305159399443   10.57817253741071   25.53649922773154
C         3.90430174681662    5.85967980219828   28.80972634643101
H         4.44601425452984    5.79288818528967   29.74102205937907
C         2.15041368997546    9.90020002801526   23.38009044715833
H         2.78077836685484   10.38679465393206   22.65013955090362
C        -1.65953152729742   -0.06227947127431   27.15269673562841
H        -1.87702077109114   -0.64762070817152   28.03420023218116
C         3.84532977948270    4.76840574004020   27.96437520515774
H         4.34193391481709    3.84752752683071   28.23543851740218
C         2.59060329369970    7.11130876198752   27.24952415963891
H         2.11645269677222    8.03969169930158   26.96566070008836
C         3.38180817828985    1.29811562930614   24.37344090010610
H         3.46011233438542    0.40869889001452   23.76655460405523
C        -1.13434250081200    1.45326913016284   24.89566511117099
H        -0.95500383496438    2.08340631029332   24.02800980065761
C         3.27041244238606    7.03615535701299   28.45018209731266
H         3.31059297041825    7.89767876102900   29.09953977319183
C         4.50990567648958    2.04172138529403   24.67289418375908
H         5.47833401081129    1.73855609062211   24.30487014777135
C        -0.10596500301358    5.45974072619647   29.57526854397637
H        -0.63913084762240    6.34796822890945   29.87964532276778
C        -2.15870866327185   -0.45187427924941   25.92205802143993
H        -2.76531215765706   -1.34202517973638   25.84419705819604
C         4.39087077564416    3.17549677920408   25.45347230387848
H         5.26764019919624    3.75921931011078   25.69560619509173
C         1.27244140805785    3.17126892089871   28.80561659373967
H         1.81754790809279    2.29020680374301   28.49355244423036
C         3.89685974244841    4.11318653787661   21.54877640801939
H         4.44545518170386    3.62108565995181   20.75943937233101
C        -0.18884457967875    5.01356954697583   28.26912564271700
H        -0.79893653174274    5.54834103896073   27.52919002670806
C         2.52897339444066    3.92233801264729   21.66166173525534
H         2.01279875934848    3.28383327889685   20.96042586569769
C         0.66337520602392    4.76372027947775   30.49395834376408
H         0.72993798621627    5.11228538369655   31.51387479362509
C         1.34892485593181    3.62188338378105   30.11048522276356
H         1.94713233293486    3.08381405586960   30.83129035889765

