75
CSD_code = WAPVEQ | q = 0 | S = 0 | Stoichiometry = C38H32Cl2P2Pd | MND = 4
Pd        4.41889266936998   11.34545103794842   25.46151228058761
P         6.39369864917940   12.41172220547804   25.45692290783727
P         5.20356453732954    9.73818224981205   26.81706202462788
Cl        3.62769573800947   12.85531075182646   23.96394498828356
Cl        2.36631079229845   10.38335060796776   25.57897074629454
C         4.28869474801769    8.17185300884704   26.85312918046532
C         9.50986825240796    8.40265667216583   25.85535476848138
H        10.51664698377760    8.09691501840637   25.61114196389379
C         7.89018421818600   11.29783694749088   27.58625713432583
C         6.92652443483261    9.21306128912755   26.51237377259105
C         3.90238839118309    7.66356879209445   25.61268594256735
H         4.13853474976648    8.22735312830659   24.71387943412964
C         8.43440019952633    7.61125148498912   25.47762486423740
C         7.26906911806125   12.43829588110764   27.06008214316872
C         5.37996924190147   14.94672033480508   25.46977584155557
H         4.64251444323301   14.49440055295734   26.12738668887043
C         8.88162246153803   11.72066998799444   24.29954125181636
H         9.34142728779138   12.40247938215468   25.00266886338877
C         7.50164496863942   11.54626379723982   24.31139450581108
C         4.44226412618445   11.52295113341414   28.74739208197272
H         3.88868392141771   11.98040733693194   27.91609921942171
C         3.19191308167732    6.48226053802139   25.53944133535508
H         2.88740055645077    6.09249442551779   24.57948089813225
C         5.88915640671832    9.77340583919481   29.55994046126375
H         6.48034060842806    8.88726415260619   29.37023343077522
C         8.48399734491670   11.37999759338030   28.84123934709799
H         8.98993146377204   10.50927372500521   29.23369338346397
C         9.29954942814352    9.58180531191644   26.54305456611842
H        10.14279468165679   10.19283350002035   26.83246115979706
C         9.05824080612821   10.11895266657583   22.52148674451242
H         9.66838573667637    9.56118874874744   21.82649712877402
C         7.21498711383307   13.59409810204231   27.83297528301651
H         6.73455974037076   14.47574448158012   27.43227322538189
C         7.15656282792056    8.02457955635993   25.82652935096331
H         6.31754610770477    7.39724059828327   25.55984373668014
C         8.41305366681884   12.53245336313846   29.59904576738924
H         8.86417958358824   12.55729372660670   30.58015304838080
C         5.18981364178704   10.37073445198717   28.51622512819845
C         6.90405243095424   10.65709897830209   23.42114910232190
H         5.81232973580798   10.53545637074593   23.43491041042119
C         6.21025655616170   16.82300849508639   24.23531234060972
H         6.13502465885456   17.86245912065088   23.95178704244092
C         4.39770411930686   12.07423059818719   30.01477816908669
H         3.81864276592553   12.96749136761867   30.19670458243908
C         9.65474137622796   11.00683505989228   23.40263473680422
H        10.72679294040952   11.13924546731244   23.39212190378719
C         7.30882029416417   14.69472725337847   24.04765577719623
H         8.08028579828891   14.07624053107617   23.61172263791913
C         6.39788478256858   14.15165137782623   24.94257327350789
C         8.62935257866399    6.34678664196497   24.70043280302887
H         9.67032485581860    6.03471460479150   24.71763093353102
H         8.33514747708762    6.50317243344959   23.66266662237683
H         8.01228166563098    5.54673129313982   25.10435407588322
C         7.68357248455481    9.94461871452141   22.52857153415973
H         7.22233105729346    9.25458454777182   21.83758526565841
C         5.83763296172506   10.32833731538412   30.82516514921614
H         6.37976304239886    9.86677089889400   31.63757569251705
C         3.21867321648908    6.32114967508216   27.93556381934901
H         2.93788353356640    5.80382799793919   28.84145261908471
C         3.93634007517676    7.50323510789698   28.01671397754682
H         4.20391556031779    7.90928398003148   28.98169783015472
C         7.76569107932801   13.65609429251478   29.10511878422414
C         2.85192924719151    5.80880070733466   26.70335670320974
H         2.28684365676370    4.89001716991767   26.64840661136761
C         7.21099823765947   16.03168229687405   23.69878893579246
H         7.91546190549338   16.45317831130544   22.99652091610613
C         5.09603695212616   11.47696954349318   31.05190309437300
H         5.06294373315643   11.90749855725355   32.04180956513786
C         5.29167062516695   16.27954767903623   25.12095465375729
H         4.49896595680456   16.89262303261379   25.52329821679713
C         7.64270156799145   14.90766899939224   29.91713568757227
H         8.31256622119875   14.88501476585961   30.77272635724753
H         6.62137251797068   15.01036992377937   30.28354749201342
H         7.86896209400516   15.78363351065938   29.31249910488038
C         8.01748950849775   10.02432099696440   26.85079897882791

