24
CSD_code = WAPWOB | q = 0 | S = 0 | Stoichiometry = C11H6BrFeNO4 | MND = 8
Fe        1.88978866279831    1.01299963615474    2.22047715823537
Br        0.13906756256487   -1.07644543154499    7.46975059294661
O        -0.03571351968094   -0.90938082394925    1.24589779170997
O        -0.06871067316930    2.99320001373150    1.43583531399018
N         1.17109104000066    0.88408114365468    4.06445056036667
O         1.24337412064472   -1.37826633685995    4.38561003122923
O         0.86610606607733    3.11394679125500    4.39670753637747
C         1.01021013709815   -0.25842052648338    4.77589255578664
C         0.49824875610243    0.16414572501500    6.13453717475960
C         0.38369043275526    1.49213483686935    6.15456823514911
H         0.05445244088359    2.13905407593471    6.94528601792168
C         0.81495235110863    1.97503633283813    4.80817713815792
C         0.73991322202181   -0.17115267778166    1.63282870307572
C         0.71406374360291    2.24113891577436    1.77607756723080
C         3.51948695848824    1.20108820930234    0.74695962980154
H         3.45159399977412    1.33449887622845   -0.32086117763179
C         3.71284333083255   -0.03966722733398    1.41429552400452
H         3.73851022766662   -1.01002582639437    0.94792810997074
C         3.94333479048213    0.22959177711707    2.77350808379555
H         4.19204077682892   -0.49842879721482    3.52745580887251
C         3.95221118733969    1.64642865321513    2.94739655043467
H         4.20358387967709    2.16624189245116    3.85719927880827
C         3.71775934927196    2.24130360370909    1.69816091395893
H         3.74820115683016    3.29599716431174    1.48306090104807

