77
CSD_code = WAQBAU | q = 0 | S = 0 | Stoichiometry = C38H32HfI3NP2 | MND = 6
Hf        7.84388582904680    9.52483180645571    6.03099883688731
I         7.92648729872860   11.30072054521827    3.84403105697164
I        10.51916324860002    9.90228396095704    6.85132268611082
I         6.92175134525965   11.19668801144926    8.10924152699065
P         9.16452053161244    7.66663465231391    4.26987727775358
P         5.11066793372960    9.56836400479548    5.32620463217505
N         7.15343108636380    7.58302128522684    6.21628204765238
C         9.54357750316967    6.22927780115131    5.40452182701209
H         8.90867772210133    5.38407336228089    5.11993098080565
H        10.59004962525709    5.94521749191399    5.26672196826368
C         9.29764404252893    6.57279418138273    6.84315784637045
C         8.09521514572101    7.19891527330678    7.21500731783005
C         7.88410408668969    7.53358294751510    8.55471783356787
H         6.94060009824718    7.97558905227209    8.85337664804751
C         8.84523668315023    7.25493436421196    9.51156886582199
H         8.66690265841365    7.52768188227269   10.53993325793754
C        10.02691916236498    6.63614314478522    9.14299491449936
H        10.78253766501971    6.42551430392024    9.88247582182930
C        10.24488085186174    6.29612216209288    7.81901337776846
H        11.17296185849548    5.82486423445645    7.53078306820665
C        10.76053037961275    7.78683339771367    3.36642976429712
C        11.39842860831449    9.01184876484215    3.22388328916232
H        10.97498422181810    9.90772280660756    3.65464184134182
C        12.58956419511434    9.09494100352211    2.52321744978955
H        13.08254167323570   10.04952154760149    2.42350918260095
C        13.14154137573020    7.96044474230776    1.95609927983902
H        14.07130400020276    8.02492470049590    1.41123746171159
C        12.49730829411466    6.73864566677068    2.07989774814867
H        12.92005776630138    5.85370142257461    1.62695064977505
C        11.31009696656859    6.65012798859222    2.77865958353101
H        10.79949455546294    5.69903444550835    2.86107546977052
C         8.21708570629830    6.92974846075307    2.88089948209808
C         8.13024016395008    7.75194813087446    1.75388379527825
H         8.65250424720600    8.70114284481788    1.74380196523335
C         7.39024149565413    7.36414452074698    0.65540746984673
H         7.33359592374128    8.01059026948853   -0.20742254817989
C         6.71971800688353    6.15049832316593    0.66760557049211
H         6.13587416136087    5.84538969291550   -0.18769212837157
C         6.80023544734615    5.33204408056492    1.77950385903919
H         6.27858533914076    4.38674871025542    1.79865042319111
C         7.53946827385534    5.71819124012120    2.88532453386955
H         7.56196361155451    5.05965236129220    3.74097569760726
C         5.31526816746289    8.24063329405799    4.04347298601506
H         4.47129653506828    8.26831421552139    3.34736621616787
H         6.23433517314658    8.43962337671003    3.47225916864489
C         5.36676050956409    6.89682353782579    4.71365259937750
C         6.26934261506283    6.61835470061003    5.76240508315656
C         6.23328043726952    5.34062265578714    6.34058582909142
H         6.90942002156256    5.11657928665332    7.15458289379978
C         5.35092292189386    4.37708749921688    5.90290415538877
H         5.35428140373403    3.40416820828828    6.37227898616937
C         4.46611299555036    4.65666957441221    4.87659612372574
H         3.76829366321654    3.90956833262140    4.53238484944396
C         4.48190194950332    5.91433049504763    4.30228832727025
H         3.79019958096393    6.14249506195107    3.50314150762329
C         4.22154952345234   10.89074558709476    4.44277303377542
C         4.29570436485681   11.08341105619066    3.06824802765564
H         4.86822271609023   10.41108372251726    2.44527371024388
C         3.64248711925867   12.15721660168395    2.49037358011720
H         3.70187581584427   12.30395957681684    1.42243830821422
C         2.92905571193207   13.04641333738951    3.27584035908582
H         2.42631298703972   13.88531650490824    2.81895844963698
C         2.87200081637667   12.86910056915873    4.64937214532264
H         2.32911486996206   13.56934480738519    5.26602465539927
C         3.52240769112884   11.80057704941341    5.23392049545871
H         3.49351449184402   11.66185116521042    6.30732933462070
C         3.72507223756045    8.80092749260041    6.24157929272530
C         2.49641354805255    8.59617148286860    5.62132083534240
H         2.33315796939035    8.96199335560842    4.61662414710169
C         1.48741322454972    7.93535168145705    6.29367152516039
H         0.53533186351723    7.77554540967370    5.80939989018932
C         1.69436660956541    7.47520636816712    7.58486653721587
H         0.90375887902804    6.95558927014971    8.10496469373107
C         2.91041771266024    7.68710346233059    8.20997976376582
H         3.07124426299300    7.33824492231714    9.21908180094147
C         3.92254590269053    8.34985390489359    7.53936901935161
H         4.86863691838044    8.52392284393720    8.03407003649279

