27
CSD_code = WAQDIC | q = 0 | S = 0 | Stoichiometry = C11H11AuClN3 | MND = 2
Au        1.38572383656078    0.35741270561936    1.11570397753302
Cl        0.57872008585642    2.16909236076320    2.14741631801783
N         2.37835467969786   -1.26512229797258   -1.15578808541341
C         2.08282951367760   -1.24011297377214    0.15760572261516
N         2.28664127842138   -2.51577199281376    0.53362178503574
C         2.73092024132654   -2.53072701164204   -1.51406512421180
N         2.67782558458876   -3.32031042762931   -0.49367129220436
C         3.04276223312515   -2.60317853307962   -2.95957806152367
H         2.21200254735477   -3.07331632301947   -3.49085959203143
H         3.94384534490599   -3.17775845132910   -3.16381699552982
C         3.18348390087134   -1.10946206120749   -3.32632601313156
H         4.23391754636627   -0.82094518512382   -3.27927699085178
H         2.81679044310581   -0.89736739285494   -4.32764787854596
C         2.38853082690762   -0.33771307504232   -2.25293018094949
H         2.85642763781983    0.60509494205217   -1.96703153472556
H         1.36131804159996   -0.13259832462567   -2.57093683206433
C         2.12812333553158   -3.08639546992309    1.80986646963324
C         2.32397500383568   -2.34052712767071    2.96533070732734
H         2.60761401912194   -1.30202948104180    2.89914092520398
C         2.15010331414308   -2.94239645752364    4.19843013798800
H         2.29543616835076   -2.36060514353616    5.09543870615092
C         1.79998169809043   -4.27971481217771    4.28422363940186
H         1.66606796032978   -4.74187050811276    5.25030369158465
C         1.62790262061873   -5.02430035325771    3.12887297570694
H         1.36136386075439   -6.06847031111894    3.19061782817828
C         1.79056790641109   -4.43289526705828    1.89041140395214
H         1.66207037062638   -4.99751102690236    0.98034429285345

