34
CSD_code = WAQDAV | q = 1 | S = 0 | Stoichiometry = C12H11N4O6Zn(1+) | MND = 6
Zn        2.59407957585830    0.15253610184343    9.50626230503360
O         1.35751941023431    2.91545588087111    8.72260786738057
H         1.01631630939057    2.30139061986503    8.04673451776005
O         3.25937616682440   -1.79777303536522    9.30068262123782
O         3.76525728486719   -3.29602463572889    7.78917256755713
H         4.05746468776724   -3.43395162327981    6.87545564673526
O         0.93466012463776   -0.50326002957181   10.30965812377281
O         1.10297334048728   -0.16251304411823    8.22443844005831
N         2.07130876918679    2.17100767388282    9.60598167316284
N         3.52263442195131    0.65356408505167   11.22105486078693
N         3.86819386610592    0.27409053008204    7.80229711732594
N         0.42682680149324   -0.62891858887977    9.18115281367865
C         4.06653960962995   -0.93717278251584    7.26840981624769
C         3.56606683853280    2.37110382027227   12.88280919701534
H         3.30788880351382    3.37687322675978   13.17481673821026
C         3.66174760994331   -2.05318619294382    8.18158693888104
C         4.52186082916512    0.23235006057414   13.33822014949017
H         5.02583063604069   -0.46334531753715   13.98930751007757
C         3.21815387626619    1.89975812857794   11.62087893267182
C         4.14820918628887   -0.15838712953955   12.05854217920952
H         4.34921673183424   -1.15532932724622   11.69408052789964
C         4.60631954264751   -1.10985770389291    6.00048486941375
H         4.76879894365975   -2.08868720408717    5.57389092546450
C         2.47118990982153    2.71949836741753   10.68164526995744
H         2.24611784043399    3.75422831982452   10.92300951180305
C         4.22871687677952    1.52061649738749   13.75610812287293
H         4.50216835998587    1.85724448586768   14.74412192046674
C         4.74038676036329    1.26699618897821    5.82346533526653
H         4.98945715481538    2.16701648223378    5.28503764730794
C         4.19688496066368    1.34507640737281    7.10064540068251
H         4.02314929172629    2.30270952355845    7.57010290519195
C         4.94557423273926    0.01829745247763    5.26297937483032
H         5.35985678379545   -0.08345560559069    4.27192733177036
O        -0.62794553744981   -1.13265163260083    9.00123084077808

