72
CSD_code = WAQGAW | q = 0 | S = 0 | Stoichiometry = C30H38ClPRuSi | MND = 9
Ru        4.83827325767090    0.82837060495859    1.70068873536744
Cl        5.48087401138250   -1.66719556830628   -1.01566287805906
P         6.03673456545744    1.53513288720730    3.51844462818769
Si        5.84136441801806   -1.28092315706109    1.02770602716999
C         3.02461347466399    0.70975982086095    0.39600830783686
C         3.98265268020817    1.58714063613646   -0.19304664314979
C         4.17559816667406    2.70000177669792    0.70397596954460
C         3.30716224037729    2.52493667899032    1.81932492016160
C         2.62217266758067    1.28694098856180    1.65007444260542
C         2.30868736550069   -0.40544102061972   -0.30407969463413
H         1.46899881458465    0.00445681435028   -0.87153335957891
H         1.91800876130581   -1.13106909713681    0.40695790843150
H         2.97144924353865   -0.92275116373905   -0.99384312571180
C         4.43180722847580    1.54412457822683   -1.62095063393931
H         3.65574671177683    1.98373680498647   -2.25266450606134
H         4.60435893406057    0.52108784055126   -1.94773491703933
H         5.35048917467521    2.10919385780095   -1.76406275122784
C         4.87224990089086    3.97590929362566    0.33508615676718
H         5.16450600267265    4.54577283439524    1.21541766142730
H         4.19958057540964    4.59396405533451   -0.26533482493489
H         5.76835181078717    3.78212196218397   -0.25161641964479
C         2.96610371418953    3.56762931666710    2.84113017656912
H         2.03536724458208    4.06261093606590    2.55143212925311
H         3.74574983389857    4.32403354016086    2.90512070859228
H         2.82476004943279    3.13799129397589    3.83264137775180
C         1.42111535435610    0.84726304575828    2.43479219920602
H         0.51855926338926    1.16588281128495    1.90693936971485
H         1.40542519116269    1.29289199266266    3.42772039720260
H         1.38429033686530   -0.23605076644298    2.53877943006166
C         6.74298684642138    3.19985808786370    3.28088817888143
C         6.27049610310004    4.32919738849942    3.94086801130400
H         5.50115807659853    4.23505892211785    4.69489665602443
C         6.78606112802216    5.57868111407258    3.63851246097140
H         6.41140446558457    6.45085480981261    4.15527400157083
C         7.77347420430627    5.71336219326581    2.67744951475187
H         8.17221622460846    6.68972255155970    2.44479067879495
C         8.24274130539646    4.59266126120101    2.00900299506967
H         9.00896149541375    4.69504607482205    1.25432746875741
C         7.72464300626259    3.34577682189776    2.30182133497183
H         8.06516375475250    2.46750533675767    1.76791995570271
C         5.26903571032850    1.68163339929966    5.17644469785926
C         3.98059355201314    1.22470284237546    5.40914175182849
H         3.42784071242894    0.77727866405080    4.59443468678528
C         3.42031377346982    1.31800768242630    6.67204413007751
H         2.41488757077810    0.96135561470282    6.84454303679435
C         4.15059655061829    1.86345191814755    7.71332806363109
H         3.71507400831632    1.93935463089367    8.69875115428282
C         5.44763693801691    2.30231254965588    7.49296247683977
H         6.02372771477098    2.71533398042228    8.30822025989536
C         6.00788716291685    2.20865753704725    6.23379460313339
H         7.02274866653313    2.54143273308364    6.06290792581473
C         7.47518914726639    0.55101474072618    4.08030704481373
C         8.76467231343520    1.03156967023207    4.26497476540857
H         9.00559809355412    2.05992448305332    4.03642986649819
C         9.75312409824209    0.18708064074056    4.74399260067098
H        10.75708913252749    0.56341180684173    4.87730746379757
C         9.46110143722083   -1.12924455351765    5.05527469199551
H        10.23706549160642   -1.78114256271750    5.42818573537285
C         8.17069692016656   -1.60883476957494    4.88835690903362
H         7.93862101234418   -2.63479860954604    5.13282163431732
C         7.18483968877768   -0.77298643831282    4.40220367452002
H         6.17387021897169   -1.12972637667574    4.25112879533517
C         5.17964523972149   -2.94696124727613    1.76551133393870
H         5.58567054430551   -3.79428119261573    1.22025362405989
H         4.09672555692647   -3.00808308842358    1.70835675158256
H         5.46148253526611   -3.05405887278193    2.80795856000789
C         7.76534327639776   -1.52260849632690    1.01986752180559
H         8.02340421837203   -2.52320945687752    0.68374816768245
H         8.19078457243311   -1.37888416137128    2.00768602309155
H         8.24473353136204   -0.81596499038869    0.34841090311796
H         6.19089262283423    1.18178575822719    1.05538058128418
H         4.31805038401841   -0.19157199552799    2.73110851605364

