53
CSD_code = WAQGIF | q = 0 | S = 0 | Stoichiometry = C27H24AuP | MND = 4
Au        4.83873935023726    3.45321046919284    1.10979677894641
P         3.47284417000891    3.75039416677219   -0.70926724412893
C         6.00560079017288    3.13068693009991    2.58904623127878
C         6.74017631911792    2.92107752390256    3.52093470520915
C         7.60665537199724    2.67082510932244    4.61403076239770
C         8.13884085404079    1.39639237285778    4.80956774525015
H         7.88103129129798    0.60522179815343    4.12007852784859
C         8.98409009927365    1.15616462647220    5.87563781113533
H         9.39392269067061    0.16704563230174    6.02429992753514
C         9.30852652542265    2.17832502342329    6.75351036085882
H         9.97088117033899    1.98691969834851    7.58541881607566
C         8.78212016886292    3.44616561349509    6.56302170953017
H         9.03457722707376    4.24329912871692    7.24800980958917
C         7.93440154894787    3.69607269621445    5.50107245278379
H         7.51827594288473    4.68119078764963    5.34613218318868
C         5.67804340762207    2.03252621486871    0.09062312017809
C         6.14685992676768    1.17408546730036   -0.61970113030636
C         6.71227905232355    0.16876705886813   -1.44355198514736
C         7.91009325667040   -0.44536610130487   -1.07640964505369
H         8.39386097278255   -0.14669812226916   -0.15756819874389
C         8.46352576937989   -1.42002839095091   -1.88316378047858
H         9.39178967790443   -1.89219387868015   -1.59462287362823
C         7.83404309877002   -1.79429610540938   -3.06012146619146
H         8.27008927252628   -2.55702466510741   -3.68863842519335
C         6.64409688917355   -1.18855127655105   -3.42976868511966
H         6.15156269208696   -1.47949690775034   -4.34703798847560
C         6.08344467339415   -0.21197854249497   -2.62939699690424
H         5.15365802224208    0.26154116742530   -2.91803871613351
C         3.98625014557212    4.87132061103505    2.11087928794341
C         3.41149102458427    5.76252763721270    2.68958980429997
C         2.72953110223746    6.80577897868260    3.36382567011597
C         2.72679856235421    8.09982281944971    2.84226624560075
H         3.26160331943391    8.30347396730426    1.92447045097508
C         2.05288377358196    9.11095447722233    3.49929372953856
H         2.05668469936118   10.11219853449441    3.09167925994981
C         1.37359297196297    8.84600290925905    4.67767187944788
H         0.84706229784946    9.63903257994399    5.18857213373173
C         1.37334576871124    7.56251023168182    5.20074507481794
H         0.84600768908889    7.35536439729383    6.12123097405810
C         2.04587932147441    6.54542529295868    4.55183421489257
H         2.05262579046029    5.54295075725804    4.95583178625807
C         2.25412719551628    5.10096855232010   -0.65740759014323
H         1.65193017452349    5.11403285505096   -1.56694643549744
H         2.78749855898039    6.04497506788363   -0.54478528304445
H         1.61779311873846    4.96187869186997    0.21678966865841
C         2.46945589120831    2.27708913261945   -1.06478762293265
H         1.88651577707152    2.42111213513041   -1.97584432587196
H         1.80205692165298    2.09288095712972   -0.22206748343588
H         3.14317942745628    1.42674282530283   -1.17592193774050
C         4.36909000735922    4.03943181941181   -2.26451492354111
H         3.67302109920692    4.08239446204131   -3.10365448860391
H         5.08134872874584    3.22524645764044   -2.40262866057353
H         4.91659640093535    4.97950635497606   -2.18771523517703

