27
CSD_code = WAQHAY | q = -1 | S = 0 | Stoichiometry = C16H10Au(1-) | MND = 2
C        14.69767694878118    2.51216811738633    8.32579502991205
C        15.73327460725660   -0.01925237017580    5.56076032678195
C        14.93025153035429    5.07517342529979   10.78118526807368
H        15.96254781456269    5.01812106893324   10.46062031682380
C        16.05847598412155   -0.81278243799052    4.69754601474037
C        16.43743142523603   -1.73562049736756    3.70144314034754
C        12.65635907473447    4.31287740127754   10.61390638501055
H        11.91816629517319    3.66222539753474   10.16297337174250
C        13.98837781666916    4.22411606849473   10.18692830410855
C        14.36931848355657    3.30505871025155    9.18833332028693
C        16.66713052764758   -1.32121200458665    2.38233582896080
H        16.54774112957794   -0.27434926080869    2.13435590321916
C        16.59640043987935   -3.09517502385311    4.00344585270587
H        16.42172809789496   -3.42920498834910    5.01814623329083
C        13.23101710270778    6.04768004278463   12.17193076610654
H        12.93830016670815    6.75234938224315   12.94003415039485
C        14.55305494681347    5.97197506460042   11.75871125343726
H        15.29398239923570    6.62289175883639   12.20816076005923
C        12.28747611302510    5.21239695601909   11.59209389374320
H        11.25308125220295    5.26802035508100   11.91088198449933
C        16.96914550266749   -3.99584882198791    3.02789453079816
H        17.08776496171686   -5.04365008140283    3.27849784230534
C        17.03969857926088   -2.22843449410524    1.41263976840820
H        17.21377855801349   -1.89134983133721    0.39732337649595
C        17.19376304907899   -3.57073871589587    1.72670918678001
H        17.48672781229177   -4.28014959438315    0.96316450001178
Au       15.21572938083146    1.24661437350111    6.94318269095552

