105
CSD_code = WAQHUU | q = 0 | S = 0 | Stoichiometry = C44H56FeN4 | MND = 8
Fe        6.91149139564147    8.56618297395770    4.86419948930383
N         8.16805916232649    7.30413664443737    5.58500566458748
N        10.43974632510260    6.56106771544244    5.87084123549699
N         8.70621339136343    9.18774075404099    2.59366429828090
N         8.63055303107917   10.70544326386218    5.95393889332805
C         4.96442592124134    7.21608829745733    4.21464280762471
C         4.71787137052068    8.60742421141589    3.90351900271697
C         4.70339996722858    9.30620245725302    5.15007991089139
H         4.42508398733235   10.33639603625532    5.27580239214702
C         4.92566354474075    8.40783368136908    6.22028663446005
C         5.07370738211197    7.13457602088869    5.63255269454590
H         5.20505928385566    6.23140215775271    6.19726272231327
C         5.02465041710292    5.94686510141102    3.36834473392584
C         3.72859136369972    5.73933033772763    2.57277812073677
H         3.75816050456933    4.77726944902246    2.06414424675750
H         3.57503226972729    6.50615624409949    1.82239775865074
H         2.87411635704151    5.74298570722390    3.24733218204249
C         5.18215031771798    4.70894304387678    4.26819093357569
H         5.21852777263104    3.81643191667495    3.64572717949972
H         4.34209462646608    4.60206103939336    4.95102144340399
H         6.10865400855999    4.75602022091718    4.83467686572808
C         6.25313072457059    5.94830890363090    2.44661072616437
H         7.14288677285245    6.15254949153979    3.04208445802961
H         6.19129436340294    6.69684305609874    1.66801059328579
H         6.36590155044508    4.97472109969370    1.97219043165496
C         4.31323917433131    9.37482192958060    2.64841126264936
C         2.78324369380090    9.30082631349233    2.51474764930160
H         2.44744607196722    8.27635911180927    2.38500086986144
H         2.45318243560647    9.88431400546163    1.65727742427226
H         2.30751610747181    9.69966244005932    3.40814693648147
C         4.97414359616317    8.89660027502052    1.35398147177102
H         6.05556233638817    8.89216747176746    1.47395590717921
H         4.71925366969576    9.57629279159234    0.54150056095079
H         4.64055927213893    7.90885005986113    1.05953194794315
C         4.71053540099270   10.85616057131295    2.79485637491594
H         4.08556815258855   11.37688908628049    3.51419805690523
H         4.59396865405226   11.36517945517414    1.84017480577971
H         5.75045916383022   10.93578003768394    3.10811899295416
C         4.85410282981350    8.70125091468389    7.69913455945654
C         3.45774798966315    8.31342020843216    8.20876299997834
H         2.69018897155467    8.88427321500136    7.68980370834764
H         3.37565502371349    8.51218373603435    9.27544129690294
H         3.26951429512717    7.25572326478646    8.03846717316805
C         5.91945588751190    7.88566102802055    8.44089171914083
H         5.69677193823302    6.82285009386145    8.39908946394375
H         5.96316264427012    8.17907709998037    9.48812384527116
H         6.89565366627145    8.04623044741066    7.98534239873199
C         5.09681503408987   10.19007075217565    7.96437320396985
H         6.03967167419280   10.50079146889014    7.51651745625233
H         5.13761690091643   10.37943891810465    9.03539775201301
H         4.29704812123515   10.79814185065431    7.54809350538820
C         9.27192435295635    6.87428065330805    5.63134838484617
C        11.25738468591967    5.53915125407395    5.48743504535612
C        12.62697155745751    5.69325098267782    5.76442362434506
C        13.50811716203727    4.69091674682660    5.40429244519004
H        14.56205246135436    4.81166055862220    5.61441126481765
C        13.05800673916588    3.53866086569113    4.78171088732872
H        13.75526899688898    2.76093994037174    4.50649464491322
C        11.70841695465887    3.38692671051375    4.51660204598361
H        11.35547872800265    2.48555628943241    4.03369408292231
C        10.79458962832955    4.36924480932415    4.85806346973541
C        13.09888544242679    6.95258084712718    6.42623331608278
H        14.14596230152027    6.87384995473696    6.70879110517128
H        12.50047576328620    7.15699615598600    7.31253496580569
H        12.97980773069392    7.80153533726138    5.75202564499674
C         9.33440391347816    4.19170113143515    4.57009211817717
H         9.14064855255166    3.20437094250741    4.15672405884242
H         8.98978966293319    4.94180998346924    3.85697658140510
H         8.74754075387803    4.31372530541434    5.48109638000014
C         7.91991795861766    8.89939090289017    3.42140988797550
C         9.67375047353551    9.50300037211337    1.69718838038982
C         9.49180327825816   10.60631654973870    0.85244482324500
C        10.50184268276135   10.91823570744158   -0.04307473425848
H        10.37990968514351   11.76650235917642   -0.70061928657661
C        11.65765260010670   10.15877819125337   -0.10192329835428
H        12.43455180572313   10.41580848049895   -0.80604465247654
C        11.82134756805380    9.07158624554628    0.73973229547760
H        12.72535211011158    8.48287799630020    0.69069391621698
C        10.83862229458360    8.72261158663546    1.65150765321496
C         8.22900387778157   11.40865036938961    0.92176088499960
H         8.34545114634186   12.35292373877127    0.39654643792443
H         7.95410477997295   11.60766388711051    1.95625464565358
H         7.40771491982826   10.85776891314415    0.46302137991202
C        10.98853742110510    7.55174477495169    2.56841169681415
H        11.98175604750352    7.11787365284672    2.49204308517266
H        10.25610830721128    6.78223608794408    2.32267698628165
H        10.80929112002958    7.84695559857100    3.60192018231665
C         7.84914146092497    9.91369944294865    5.57038979570830
C         9.53455100735648   11.53252164516306    6.53250246172216
C         9.94937234898033   11.27564379152630    7.84711115364530
C        10.86093457367332   12.14576658916610    8.42246186536558
H        11.19223379844795   11.96868124935081    9.43514901022822
C        11.35042788430132   13.23208606906738    7.71687043332323
H        12.05695217994268   13.90185669963622    8.18360386649000
C        10.94435437284453   13.45888379273155    6.41247998083854
H        11.33941641440303   14.30116913590062    5.86358808862431
C        10.03448038555882   12.61527369036550    5.79759336876911
C         9.41010961746037   10.08735175247319    8.57820185142232
H         9.93373291289611    9.94441636265601    9.51947915416790
H         9.51486831504420    9.18835963944326    7.97009817738461
H         8.34798552983592   10.21871838777301    8.78622522396621
C         9.58808039066393   12.81915258739566    4.38278968912617
H        10.04401166778352   13.70916308255447    3.95775925082709
H         8.50368945412102   12.92046699733476    4.33592011721555
H         9.86676570426031   11.95780882633906    3.77492939842921

