85
CSD_code = WAQHII | q = 0 | S = 0 | Stoichiometry = C36H44FeNO2P | MND = 7
Fe        1.87688598940544   -0.26478127139348   10.72581346582297
P         3.58276840020824   -3.13475968776453   10.30199546839758
N         0.99629516858915   -1.47657146839761   11.81741783999904
O         2.96026202663151   -1.93868049993666    9.67911030417194
O         0.11018997004065   -3.15728221712777   13.21398107236516
C         0.31360552176105    1.30347550901714   10.37140049678994
C         0.86821195127596    0.87505634307512    9.11299359202863
C         2.26822271729738    1.14978022421325    9.16394703621590
H         2.95679056498317    1.02858251072603    8.35008799945379
C         2.60693495177472    1.72671959131961   10.40026003667091
C         1.39727300856043    1.81202584799975   11.13486021668096
H         1.31142910527952    2.27819418601594   12.09895066340491
C        -1.09099976281556    1.34031948533383   10.96107520503351
C        -1.00981582119650    1.43164908146235   12.49510392417075
H        -0.37901306240869    0.63335258532256   12.87766764480747
H        -2.00536857724968    1.31749328768110   12.91865757342966
H        -0.62522345978342    2.39138631455655   12.82871937855201
C        -1.81994341336856    2.59434795266229   10.45319005793283
H        -1.25811939296813    3.48626127977579   10.72358618639723
H        -2.80785622668583    2.65925788330768   10.90519582632952
H        -1.93474382346554    2.58412740805317    9.37458504608948
C        -1.90800532822587    0.07637410798800   10.68111696434146
H        -2.16696009513384   -0.03535253779535    9.63583385721533
H        -2.83885258946957    0.10962830098710   11.24484012785535
H        -1.33826713285019   -0.78989762432638   11.00892206701727
C         0.26642346338723    0.25662833396635    7.85665269576174
C        -0.02982075657908   -1.22760140249991    8.11492642574414
H        -0.44045518702004   -1.69403533986190    7.22065710381206
H        -0.72240420617119   -1.36757096963568    8.93445021431763
H         0.90152963900543   -1.72397298552493    8.37763539509331
C         1.27413895314139    0.29946081664298    6.69452012974384
H         2.14239275231718   -0.31722596550384    6.90868239869035
H         1.59411023676021    1.31809722279735    6.48622310774804
H         0.80273609198928   -0.09540299341030    5.79602867569225
C        -0.97707071225808    1.00735872414972    7.36558708658280
H        -0.74474250674542    2.06202304042929    7.22945239886088
H        -1.81043633702363    0.92152213843065    8.05113216682197
H        -1.29576261071068    0.60259557417431    6.40614014572158
C         3.96524610284356    2.23891406613103   10.81087319259015
C         4.17329903745019    3.64298359960352   10.22724514358268
H         4.11770321924262    3.61525475607219    9.14154886107853
H         5.14689990641775    4.03454314210724   10.51568623727893
H         3.40459187670807    4.32178059839996   10.58997857986832
C         5.04846698219801    1.29190102886534   10.28016098590946
H         4.83250564184665    0.26823027491322   10.58185428534322
H         6.02535624666787    1.57266062416402   10.66885082407727
H         5.09360796721403    1.32610698933303    9.19542909240291
C         4.06070136711086    2.29729577742427   12.33890825064433
H         3.41568288527977    3.07574893209398   12.73850553914247
H         5.08149250450954    2.51380590845625   12.64749398505395
H         3.75983579752633    1.34237372775880   12.76548503660203
C         2.38534313672274   -4.33370836587258   10.95388463313316
C         1.18580189426333   -4.47533827641829   10.26894112270089
H         1.00165542211251   -3.85935060933494    9.40078808946827
C         0.23692846365871   -5.37253344548186   10.72090943867950
H        -0.70331033198668   -5.47221237357356   10.19930213450578
C         0.48736353893214   -6.13087333528966   11.85307783182213
H        -0.25940523374055   -6.82131941910070   12.21528204119471
C         1.68515795399030   -5.99216677810210   12.53382613374900
H         1.87201993960261   -6.57433127537591   13.42400877111058
C         2.63794640190853   -5.09451465272715   12.08676266788343
H         3.56832056368315   -4.97024917561413   12.62391104964932
C         4.69183671348279   -2.68386674529695   11.67590524618048
C         4.30695795658633   -1.62724178752249   12.49122487212380
H         3.36420723727869   -1.11721885413236   12.28375663136776
C         5.10986360077016   -1.24322771906730   13.54994971882664
H         4.81043070408383   -0.42639588154689   14.18919443150072
C         6.29946567673835   -1.91152827182915   13.79377954672962
H         6.92633554749032   -1.61217637947084   14.62048322668240
C         6.68654285087006   -2.96329749255067   12.97919026210171
H         7.61458317612784   -3.48212816775632   13.16937405130702
C         5.88446431891432   -3.35242402686866   11.92068188450257
H         6.18285900612706   -4.17159931913428   11.28154838179672
C         4.59916896157824   -4.02886056543707    9.08891504746005
C         5.15946323982177   -3.29564321262223    8.05182706597236
H         4.96111387856325   -2.23508687365646    8.00030833939830
C         5.94411029616646   -3.92640520014485    7.10374914288651
H         6.37984934587967   -3.35770414480711    6.29564119619017
C         6.16923904186053   -5.29103231317822    7.19191076954770
H         6.78077927211900   -5.78576986744460    6.45197469017611
C         5.60679188319930   -6.02497573701271    8.22450584080967
H         5.77965947684574   -7.08934238997030    8.28717115970574
C         4.82096162062185   -5.39710891619860    9.17441327504504
H         4.37253655473158   -5.96398378821978    9.97842159366127
C         0.55772884581326   -2.32656685152114   12.50785970284879

