15
CSD_code = WAQLIL | q = -1 | S = 0 | Stoichiometry = C3H6Cl2NO2Pt(1-) | MND = 5
Pt        6.70581527527645    1.78664582364225   18.24629364378767
Cl        8.12419350768395    2.27517879922528   16.45549293976740
Cl        5.37703638412247    1.43210116298630   20.11843464839558
N         4.40410781308563    3.15195448310713   17.63491080753584
O         3.45083750001878    3.69836262210355   18.16442550498097
O         4.27101751544531    2.24955659497297   16.81029639738877
C         8.06971316664599    0.21229279034871   18.89010889553807
H         9.06021662963492    0.45230501231330   18.51691900107568
H         7.97489100734152    0.11567507800500   19.96707009961287
C         7.12659108381970   -0.33736571191795   18.05708496479131
H         6.27226477041077   -0.86892346344383   18.46580688399108
H         7.35775356885695   -0.53170209402015   17.01401264840633
C         5.72664278848977    3.58185871427130   17.93454311230553
H         5.68797156227420    4.33010533676631   18.73450824169341
H         6.15394742689290    4.01505485163930   17.02059221072921

