53
CSD_code = WAQLOR | q = 0 | S = 0 | Stoichiometry = C21H26N2O2PdS | MND = 4
Pd       12.77185769304134   12.91267308197300    0.54030423399859
O        13.46792961714600   14.83239191765209    0.15213044472443
O        11.41502594373187   15.05071512778467    0.94068402659061
S        13.42810919900417   12.98137146034273    2.91717039298974
N        10.23344084614554   11.43992142927594   -0.59624236084139
H         9.27063498180452   11.22880623750908   -0.82080740506252
N        11.90683825793331   11.15864179839670    0.98192082627751
C        10.69881810209406   10.94945133597305    0.56932433619201
C         9.70999563855370   10.10831864588252    1.30152513637636
C         9.17860815721543   10.56094107601544    2.50469386647942
H         9.48857630732664   11.52019963437451    2.89309948881555
C         8.24153236868193    9.79781922384199    3.17777693632230
H         7.82761897874450   10.15471715885265    4.10879843482427
C         7.83323560138332    8.58087757243924    2.65699923855919
H         7.10435482384138    7.98495911619918    3.18532791050629
C         8.35515063746185    8.13042861570049    1.45559921922242
H         8.03402825232761    7.18425568993666    1.04645603055839
C         9.28697826838384    8.89321146149878    0.77394991597165
H         9.69974131283672    8.54474692944476   -0.16209522443910
C        10.95425581666401   12.11489002095806   -1.60418991341628
C        12.18796658886522   12.72024338540222   -1.35270867923490
C        12.85014750288934   13.31072317679607   -2.42247612968594
H        13.80525662487007   13.79447775708085   -2.25360782860929
C        12.30124450427781   13.31642022168756   -3.69691890927090
H        12.83240906339966   13.78813962103292   -4.51101019831202
C        11.06548054338399   12.73567250622999   -3.92210110320582
H        10.62431590930395   12.75192761919512   -4.90795652054526
C        10.39172477425338   12.13090126889175   -2.87776902083670
H         9.42792787359333   11.66732748960382   -3.04696104414526
C        12.44739372679760   10.44105212771793    2.11455694330758
H        13.38817455418615    9.98474897146334    1.78400670081833
H        11.77381228056758    9.63055026316863    2.43114781972228
C        12.71516846265471   11.34345536841964    3.32230833960757
H        13.36019833931948   10.84453491326092    4.04370652352000
H        11.77436716289020   11.59984790902396    3.81272248037697
C        15.27209972820463   12.75060788183813    2.72148587811308
C        15.60168493533459   11.84676684297169    1.53867267823972
H        16.66112080227485   11.93392014613192    1.29902195758265
H        15.01615960353803   12.15777364622760    0.64837159865252
H        15.39567646913955   10.80172115972773    1.76571545711518
C        15.75395752216443   14.17094879544729    2.43640318879615
H        16.83311754960870   14.18298250825243    2.29625061517286
H        15.50146091527797   14.83414834441404    3.26125114821953
H        15.27713165341316   14.54821440742244    1.52975920225220
C        15.86241957143173   12.22371312060468    4.02166058533758
H        16.94928379399967   12.23654380915334    3.96213565508824
H        15.55092647749616   11.19938627724938    4.21700100568313
H        15.55569755308267   12.84666207004391    4.85851799851915
C        12.46379833331911   15.53126961723285    0.49545022356342
C        12.61050062999529   17.03900884407148    0.33074060137394
H        11.92745803258836   17.55130996679600    1.00146579968596
H        12.36033689814488   17.29660150434036   -0.69640339764961
H        13.63665081544629   17.33936092505824    0.52493489613003

