107
CSD_code = WAQMOQ | q = 0 | S = 0 | Stoichiometry = C36H63N5Si2Ti | MND = 5
Ti        8.74336500650956    3.03707699955887   18.83688654369131
N         7.99152642386473    1.05298256243508   18.08839186180032
N        10.04885534182014    2.13971743202512   17.39012980710292
N         9.49867873807972    4.83625941513594   18.43578209252932
N         6.79416185858313    3.37410663173973   18.90281225049879
N         9.43191120942347    2.47043067036456   20.27023169370139
Si        9.85578365886954    5.97376233487586   19.67688320635288
Si        5.85696080144365    4.59098759214820   18.15314842869138
C         9.07752878898041    0.09248473089753   18.21900492574963
C        10.39554391976702    0.83897096363881   17.94397324390833
C         7.86633029603207    1.40205796106946   16.68050405234298
C         9.23452075877769    1.91317185826606   16.20260620570320
C        11.22326282114545    2.97381058756149   17.12842837854464
C        10.78709865036784    4.24795732832474   16.46312577797890
C        11.19373050686572    4.56198659995381   15.17853773740874
C        10.75830115831568    5.70833694122010   14.53781601164278
C         9.87281503930052    6.56983868071659   15.17998195612684
C         9.46774577837689    6.25112635342311   16.46600024034841
C         9.89666527219202    5.10249056473839   17.15050365950553
C         9.34449445108592    7.83995137544503   14.52748905607116
C         9.85514502915416    8.02477145178955   13.09544709806758
C         7.81127068809958    7.78973711637111   14.48303851148886
C         9.79701233417162    9.04982869964038   15.35614111630539
C         6.72629775554481    0.57356788688064   18.66105130678627
C         6.37624536154473    1.25118823083057   19.96099064832445
C         5.95106302386937    0.53340868524996   21.06202806386833
C         5.46298982428870    1.16674824435219   22.19519920049666
C         5.36212258280117    2.55340559135972   22.23475072466954
C         5.80182097171935    3.27238383851639   21.13130819531216
C         6.34608711718810    2.66366233444735   19.99610030269200
C         4.77948186331546    3.30836369510904   23.42116635648671
C         4.34651787823201    2.37910939133330   24.55856113954383
C         3.54664501719250    4.09210184831032   22.94847031696556
C         5.83135103105932    4.27962646369630   23.97388684403517
C         8.62007036145470    5.67182828033552   21.09780926675451
C        11.69640059302198    5.74021395653995   20.20851828266580
C         9.80425810473514    7.85270199253972   19.25897825740732
C         4.00555211548641    4.08450501828959   18.23229294609686
C         6.32851994680806    4.66261995085634   16.29264415489199
C         5.94316030101696    6.40412811249838   18.78460858380289
C         9.87105507179616    1.98205480706985   21.52365690084119
C        11.36225786379528    2.32230507915802   21.75766978555862
C         9.71579557551029    0.44050910902068   21.61572422681813
C         9.05401894290857    2.57590225886897   22.69310479229094
H         9.07226060957901   -0.30719003674845   19.23200210825080
H         8.94149944375843   -0.74252358661755   17.50617689559924
H        10.94109982894585    1.00560520520557   18.87744440015177
H        11.03238325788330    0.27061537150357   17.23956910951788
H         7.10870850898376    2.18552021856553   16.59009584122908
H         7.54938876767709    0.52763354226723   16.08111739295567
H         9.72614000143839    1.18037475853144   15.53654421062997
H         9.12482512732618    2.84701881659743   15.64285106544711
H        11.68867147173947    3.19262649226493   18.10082301956958
H        11.94569595001773    2.43753379530197   16.48717596792865
H        11.87960487694213    3.89833546089674   14.66613718223911
H        11.11481133711896    5.90882354727323   13.54189591270091
H         8.77442357811085    6.88848374402142   16.98934998241306
H         9.43731081203762    8.93827437957704   12.67627353530571
H        10.93895317865417    8.11186320751866   13.07447085891098
H         9.55180860736284    7.19466978130142   12.46128529807925
H         7.42021880704687    8.68575541975209   14.00451976247582
H         7.39059243078507    7.72493435809001   15.48216155250138
H         7.47946429197664    6.92251848551803   13.91528583852938
H         9.45422141290475    9.97298880656844   14.89259571984565
H         9.39841820680410    9.00475247742513   16.36510902169972
H        10.88317589826054    9.07731346882525   15.41873713169618
H         6.75264526045824   -0.51678773346184   18.79447908359817
H         5.91782643493585    0.79806758759290   17.95125719140905
H         5.97346122218733   -0.54922436336132   21.03316184940348
H         5.14799486598629    0.55990483067762   23.02711899967252
H         5.73962729219420    4.35037520152401   21.11940158417551
H         3.94501801821591    2.97148177019019   25.37866756845118
H         5.19112776932806    1.80882229451327   24.93747318919856
H         3.57097252313485    1.69170593630854   24.22899285884576
H         3.09655090061389    4.62614148140114   23.78313864765132
H         2.80554279983111    3.41170462914691   22.53359867147698
H         3.81109981684285    4.81516293884040   22.18229374482582
H         5.41538617913949    4.84913447552233   24.80301831207567
H         6.69819683151284    3.72924759283561   24.33154275664145
H         6.16648762733625    4.97567664308679   23.21115937886382
H         9.10589238217254    5.77064466406586   22.06284373693343
H         8.22276397478550    4.66051731000090   20.99793910458828
H         7.79724050541729    6.37870268105875   21.08214519109204
H        11.88322637477473    6.10858168395789   21.21215548893117
H        11.97420136929161    4.69104126159341   20.17723523816257
H        12.36099661634597    6.27706567484239   19.53673147610629
H        10.15156078604052    8.42901695661173   20.11117781066956
H        10.45918230166960    8.08222376267103   18.42457749317595
H         8.81010232827458    8.21397516446884   19.01379945937547
H         3.36318275119482    4.84742446752091   17.80596746528267
H         3.69505475814441    3.92471365225089   19.25970280842282
H         3.81860825432709    3.15957376813943   17.69406013883254
H         5.92913763497271    5.57057508847221   15.85398166753964
H         7.40522189882876    4.68692539339236   16.14546884737912
H         5.91886313413936    3.83418602356400   15.71935850904671
H         5.38347021196069    7.06769778814239   18.13064581023055
H         5.53001195195834    6.51264833465910   19.78371712465512
H         6.97063381292595    6.75231652375824   18.81405074287100
H        11.71916239025944    1.85767905150697   22.67467256753078
H        11.47753353793224    3.39877680543045   21.83842683657781
H        11.96835269535463    1.96582079241065   20.92447204815243
H         9.95825998366830    0.10267875756965   22.62114724133876
H        10.38900578017474   -0.06074804329628   20.92181189872387
H         8.68404496291673    0.17213009914293   21.39885417123643
H         9.33602655706178    2.09821141037719   23.62997025328370
H         9.23967465858712    3.64131136915764   22.77495572818996
H         7.99545460524071    2.41128893347079   22.50962134585515

