110
CSD_code = WAQNEJ | q = 0 | S = 0 | Stoichiometry = C84H20NO3PRu | MND = 6
C        11.81440986104183   15.00120305324813    8.49457629456587
C         9.78194568215486   14.04756879494059    9.63219196450017
C         9.90997495099936   11.80057610969078    8.56397519719348
C        14.23862275724750   11.35873253226615    8.63905438727324
C        14.83674594077543   12.01011573333938    7.55505650796613
C        15.90401105835153   11.41874735897524    6.89386028728565
H        16.35048505921937   11.94246066650647    6.06262334543721
C        16.38654720777085   10.18962831573000    7.30422824727105
H        17.21968114646091    9.73707399138338    6.78807884062436
C        15.79887575719200    9.54168172260515    8.37863425738654
H        16.17402803860730    8.58362066922449    8.70647071726399
C        14.73363161541695   10.12075877702559    9.04369744956313
H        14.29327870642853    9.61198253147152    9.88873049246591
C        13.77536048521530   13.23589171437145   10.70358252992067
C        15.15173581759088   13.15351415769357   10.88267750517972
H        15.72980983087122   12.43168008266136   10.32390019993327
C        15.78264426670791   14.00371797900662   11.77441957479551
H        16.85308077020888   13.94174021935845   11.90381635162711
C        15.04956322329755   14.93037703671561   12.49652969475113
H        15.54770337845503   15.59328002177174   13.18785320132186
C        13.67553868095775   15.00904784305502   12.32907239994181
H        13.10023600675225   15.72935215628935   12.89134086343600
C        13.04206759983970   14.17023818439814   11.43226696241496
H        11.96739733408270   14.23035570812300   11.28621636612023
C        12.25219689553500   10.82224267312490   10.59124912141974
C        12.22191354420509   10.89425023506217   11.97808541200490
H        12.63360562079743   11.75475920314259   12.48627954979272
C        11.66291796110485    9.85890975050250   12.70861256030396
H        11.64066537567034    9.91831898046400   13.78674762679834
C        11.13258418415034    8.75493751766466   12.06388195585913
H        10.69413527878252    7.95302682281259   12.63854108884254
C        11.16123197595847    8.67901450806170   10.67903733343177
H        10.74714027892267    7.81911169775763   10.17404753039406
C        11.71307331460074    9.70902767773327    9.94456800153317
H        11.74131739573967    9.65850189440344    8.86164679445860
C        14.27247092887368   13.31100929428704    7.08767513416928
H        13.75610870492887   13.78345804464848    7.95419191028496
C        16.14104169156707   14.77344811797435    7.52783257066279
H        16.79580087809891   15.49850354820057    7.04803714409638
H        15.62636652324627   15.26153545173548    8.37220870286142
H        16.74470782178837   13.95432458249764    7.91558830889275
C        14.36385864462286   15.27268941728650    5.96251549515336
H        14.94544089265574   15.94123049030970    5.32595576955053
H        13.85434482726044   15.87622619011740    6.73263906216331
C        13.33638901616416   14.45622297341327    5.14927302405920
C        13.23270332095635   13.09809890323312    5.94196865991631
C        11.83278465345856   12.68864557761942    6.47882830835125
C        10.66975167758273   13.56619888250508    6.30663845758466
C        10.81972055547401   14.77479688314485    5.46378961091590
C        12.01193985264034   15.14309995130979    4.89275612240556
C        12.01322932020650   15.71935171482320    3.58415100094926
C        13.16055778429162   15.22611892514018    2.87130958786564
C        13.85686694529280   14.33126875087865    3.73108246403643
C        14.44898356502865   13.21497558896504    3.20977375489843
C        14.32041239058935   11.95002219306242    3.92211015553598
C        13.62364937408150   11.89802408273284    5.10183036685753
C        12.74652722050940   10.80594655789571    5.33954077399324
C        11.61717923927645   11.29338062993146    6.06855671259610
C        10.37092762806821   10.75073587211695    5.79825832281350
C         9.21889118728308   11.61922581362638    5.69992345677208
C         9.39308165545181   12.98108242331449    5.87264055297444
C         8.71641176129247   13.88476611460980    4.99138557449017
C         9.59635352138923   14.98906725918658    4.73669443136409
C         9.58990698593831   15.59180761054446    3.48375122288060
C        10.83442674619002   15.96901837478717    2.88936367660785
C        10.75420786828287   15.71413852319040    1.47263988500422
C        11.86259311161755   15.23644606843882    0.78880450394471
C        13.09355734694881   14.99685475119435    1.49994844453965
C        13.70709526119239   13.82266972833855    0.95290728835370
C        14.36723792987586   12.94075541088100    1.80290838565034
C        14.20057197649177   11.52132308930122    1.63070700594329
C        14.17357786475621   10.91550773589329    2.93764559200573
C        13.34002484012332    9.83045061477901    3.17835938599036
C        12.61297188687914    9.77205403183405    4.41084082232603
C        11.31873744077329    9.21122376018272    4.14149978628554
C        10.21478558145481    9.70819693359308    4.82112635298274
C         8.97831481580489    9.93269503407537    4.11651281076014
C         8.36698070476980   11.11811099427636    4.66159973490127
C         7.69085475634543   11.99870685266913    3.82266435756874
C         7.86647580817986   13.41339522052126    3.99632096362784
C         7.87981833910538   14.02759923012143    2.69229032214569
C         8.72485713685594   15.09954379826879    2.44227925966330
C         9.44781810610125   15.17160687144218    1.19662717959037
C         9.30106360330496   14.16571157499991    0.25017700216504
C        10.45487456514755   13.66685016273685   -0.45630804350486
C        11.71216357447443   14.19468976556917   -0.19404629614023
C        12.85505070309046   13.31870030764028   -0.09204371089002
C        12.69551970613053   11.94892731330635   -0.25459492655078
C        11.39205117974659   11.40255272170126   -0.52878828352181
C        10.29207718556346   12.24517080653279   -0.62715217736147
C         9.03787979767640   11.86508300271683   -0.02869408528529
C         8.42491533926296   13.05171152149767    0.51331349215252
C         7.72533433851534   12.98568630603735    1.71078421937177
C         7.61062374212516   11.72868224304221    2.41170482141855
C         8.20096165971816   10.58614311102666    1.88757127760100
C         8.92809901855956   10.65623613543457    0.64614360286659
C        10.06823316637892    9.77947256007267    0.74644025544791
C        11.27815162919880   10.14615260434946    0.17011035310538
C        12.51033557157625    9.91486621210742    0.87672715489216
C        13.38582864066642   11.03258292273921    0.61964964303900
C        12.49195075005759    9.32104799721565    2.13175699485455
C        11.23570250623123    8.93860687072774    2.72985317779299
C        10.04687037605181    9.16594689634999    2.04868781181144
C         8.89492686707247    9.66865256947183    2.75688842799346
N        15.21680815240039   14.25813348673282    6.54656942119197
O        12.16309409732830   16.08446081734478    8.63742791459596
O         9.02536945038590   14.46888596402527   10.38802605005472
O         9.14322973459685   10.97814613986266    8.76712723473308
P        12.86083738023176   12.17490478736113    9.53387700278289
Ru       11.02587417333521   13.30809000887437    8.44358863523896

