43
CSD_code = WAQPIN | q = 0 | S = 0 | Stoichiometry = C18H15F7IIrO | MND = 8
Ir       -1.70555660982853    1.13838476353906    3.97327294086280
I        -4.23691865960008    0.97020964454387    3.10840226979675
O        -1.78089977839568   -1.72450651070915    4.87816241170346
C        -1.70122266458353   -0.67273940540979    4.44133890123934
C        -0.91078984964098    0.71816648956288    2.05570759690550
F        -0.41510050890431   -2.02356452503795    2.40161428840845
F        -1.54934030177958   -3.97497219233758    0.92375721611941
F        -3.28298557921429   -3.33643609606289   -1.08748537974544
F        -3.83618270967195   -0.71823232286866   -1.60901083339244
F        -2.70933140483295    1.22568464451439   -0.15532558762293
F         0.42844307863508    0.44689733277025    2.22141601583727
F        -0.90738209963733    1.91750313085212    1.40258158938553
C        -2.20598425401844    2.77477634203656    5.50267152788507
C        -1.19517409370127    1.96330180722553    6.05526349035763
C        -0.05670997088418    2.01735130937408    5.16317559966666
C        -0.33954498767298    2.99846526191440    4.14662815395256
C        -1.68693524796073    3.38086101792336    4.28174352540028
C        -3.49896714001396    3.14337220119617    6.14574020638926
H        -3.36873349698603    4.07161384085345    6.70563642706742
H        -4.28083465488011    3.30416102775779    5.40659550321989
H        -3.83381948933573    2.37243036347722    6.83614874337045
C        -1.22194034939839    1.29229631938398    7.39081321843461
H        -0.83978971990451    1.97873456994493    8.14871696921036
H        -2.23390399291068    1.00845923531083    7.67188405053884
H        -0.59982186145304    0.39979620904264    7.40007745490018
C         1.30007555405516    1.46505233399094    5.44438174969361
H         1.91064310136227    2.22690408035262    5.93277601505208
H         1.24816847469753    0.59688694825841    6.09691375907795
H         1.79884560911675    1.17262944940509    4.52250591857941
C         0.67382078870303    3.57006208535183    3.21459880250421
H         1.25922774312262    4.32108593332403    3.74896941756759
H         1.36008930376235    2.80658342683063    2.85380192929067
H         0.20318273726882    4.04678398708385    2.35867704134944
C        -2.38215209955343    4.45817811610410    3.51350428584335
H        -2.19955389801227    5.42544291375010    3.98543551594387
H        -2.02026916301779    4.50120468874013    2.48824362284418
H        -3.45691194833603    4.29106030329204    3.48598009802043
C        -1.25761449515431   -1.68738136721603    1.41957494517872
C        -1.83902459370818   -2.69960078163944    0.66767859706788
C        -2.72309152223342   -2.37510763900303   -0.35772346414954
C        -3.00752725153940   -1.03884984511619   -0.61821311994121
C        -2.41591051459102   -0.03398028879330    0.14340627797240
C        -1.53337147923613   -0.34026880476154    1.18196230807578

