56
CSD_code = WAQSIR | q = 0 | S = 0 | Stoichiometry = C21H21N5O8Zn | MND = 5
Zn        2.34746687397831   -2.09145101997713    2.41698934507232
N         1.71816429644461   -0.38188928110350    3.39264717806482
C         0.44513766969516   -0.06040240918770    3.58894488691981
H        -0.28112356860881   -0.75263965262188    3.18737188950166
C         0.06739402684059    1.08567099122803    4.26703729100770
H        -0.97666114980658    1.31347894587632    4.40685044674985
C         1.05736328872448    1.92348064699594    4.75720569215636
H         0.80285617914273    2.82356677534491    5.29629694829987
C         2.38269623696190    1.58606913181773    4.54074423375324
H         3.18212188520831    2.21723532138286    4.89780375496278
C         2.67835376421755    0.42031965670184    3.84568537044725
C         4.08821855677138    0.03180674485731    3.50626207622696
H         4.26011562151394    0.39334259522532    2.48881336640853
H         4.80513053644966    0.52143372444537    4.17612838444921
N         4.22359308654402   -1.41680381770879    3.49660633573549
C         5.29005116618196   -1.89733976627378    2.62946983883379
H         6.27597567369611   -1.85224368059789    3.10675961862281
H         5.30599399767262   -1.26324425882725    1.73808014036721
C         4.98113504178622   -3.28936695315972    2.15288147454645
C         5.95669563762170   -4.26560778686622    2.00432663197024
H         6.97989990447143   -4.05441401076362    2.27542775469952
C         5.59515604781641   -5.50504321549165    1.50198167614004
H         6.33402466352051   -6.28310851884294    1.38277530814342
C         4.27185158960885   -5.72635801376656    1.15400400510269
H         3.95040565968594   -6.67414910772156    0.75404741018290
C         3.36114336656825   -4.69942242120249    1.33355044250725
H         2.31826266627255   -4.80916059680143    1.07112063264160
N         3.71363896028101   -3.51916201947686    1.82357885294369
C         4.33476000383668   -1.96513294965100    4.85861962631879
H         4.34439235728644   -3.05131255973128    4.76917545719251
H         3.42337433702800   -1.69245074870750    5.39238219254111
C         5.53561700891885   -1.49313851244560    5.63350025245286
C         5.46127121844378   -0.34517435488852    6.41909425182871
H         4.51904227213530    0.17599892230142    6.51289335517067
C         6.56836688316776    0.11456175972622    7.10343756487138
H         6.51989763869024    1.00321904075768    7.71433165280527
C         7.77669697940043   -0.57279424788916    7.02207438671758
C         7.85316133192963   -1.73817700710366    6.26535722461085
H         8.78244303738880   -2.28393114485490    6.22239402776071
C         6.73986003187676   -2.19020844453391    5.58233773912837
H         6.79665785884432   -3.11307240480124    5.02258765793199
C         8.93800160065420   -0.03961387728115    7.77498147896875
O         8.91322816035097    0.97350131951205    8.42978730019624
O        10.03036294243819   -0.80738944631205    7.65115898323823
C        11.17916311737019   -0.36279766792540    8.35694059852148
H        11.46803109213875    0.63559049612705    8.02165050309641
H        11.96560868219598   -1.08180159267135    8.14257917572664
H        10.97396358320926   -0.32580137553750    9.42892945365538
N         2.35976994024828   -1.20600537006735    0.04149395475158
O         1.60605654558678   -2.09841465985565    0.46326247914890
O         3.16177467014536   -0.71647935812089    0.85919053045877
O         2.33048596072310   -0.83791814331892   -1.09883160237535
N         0.92313457958010   -3.67088842403852    3.80912875713599
O         0.46728133141795   -2.97607480622486    2.88602756396557
O         2.12417849449193   -3.50301004935747    4.09377383631927
O         0.24115666124950   -4.45468239660147    4.40785061140679

