45
CSD_code = WAQVAO | q = 0 | S = 0 | Stoichiometry = C17H21N3O3Pd | MND = 4
Pd        7.78161076623400    3.12014444405781    1.38715073404960
O         9.89074101313919    6.43505538763469    2.24888447578721
O         7.22162046443745    1.09675185956039    1.28455453800102
O         6.55651610760495    1.80930028115212    3.25977827412115
N         8.22042824562535    5.01196674809179    1.54436700329097
N         5.96483220584006    3.81809824993218    0.94200321650798
N         9.77011072276403    2.85165951124567    1.96217542515582
C         7.11394002476202    5.82138518862681    1.56011399925141
C         7.06994385143029    7.17824322077906    1.84021270820926
H         7.98107858497427    7.69153010801081    2.10121915708224
C         5.85565004377823    7.86461622082147    1.78972045154957
H         5.85023618298273    8.92018168423827    2.01855716051969
C         4.68054207385170    7.23709268357974    1.45743339517547
H         3.75021218685417    7.78315690115187    1.42159757822446
C         4.67506021576471    5.86206035173979    1.15796054586071
C         3.52020657478451    5.13489549170819    0.80040880652992
H         2.56887222705819    5.64452169481676    0.75199174389967
C         3.62305275553636    3.79866269415873    0.51873456252623
H         2.75855829755495    3.21773844510739    0.23813095225412
C         4.87394950999725    3.16988221099771    0.60080209574229
H         4.97806125011249    2.11347963676082    0.38159346267222
C         5.90004763780517    5.14847288936358    1.21780171642044
C         9.47279866510079    5.34804634766211    1.88477301466931
C        10.42325756853440    4.14647877773843    1.68795738691371
H        10.72930014520185    4.17982292827575    0.63816505390415
H        11.31837792854195    4.28905232441034    2.30388668326584
C        10.44526192444798    1.74758903971966    1.26508103839059
H        10.06325535091829    0.81331469631342    1.68741610572017
H        11.53059230302689    1.79680564317728    1.42584436599556
C        10.13877324711208    1.76003997605110   -0.23240717209337
H         9.05251994280204    1.87620989185154   -0.38381123413130
H        10.44737940327183    0.81650719722343   -0.67521032969452
H        10.66150580890665    2.56223833279188   -0.74997468795323
C         9.65394373342662    2.62053734385077    3.41686120949244
H         8.98940455776510    1.76154759096024    3.56897273232305
H         9.16423108000551    3.50308534255896    3.85174071673817
C        10.96607952546679    2.35806187009993    4.15723167418073
H        11.45911613504923    1.46166599751525    3.78948169972993
H        10.74247520918963    2.21112598006368    5.21043594768715
H        11.65352102722902    3.19628747971647    4.07925093558436
C         6.62918588525601    0.92479145870616    2.39554390130614
C         5.99909990596240   -0.43934728131821    2.63448620707914
H         6.20229155102017   -0.76269544223905    3.65164423556078
H         6.38304522811697   -1.16129820672742    1.91944738039989
H         4.92111293076548   -0.35186319194198    2.51499113205283

