39
CSD_code = WAQVES | q = 0 | S = 0 | Stoichiometry = C15H18ClN3OPd | MND = 4
Pd        2.46680779037469   10.38902557604510    4.11215972519942
Cl        1.06907870375108   11.23354668341171    2.54310701209765
O         5.78017926648409    8.67861802764704    5.63120502519990
N         3.74202825318034    9.72969204611192    5.44165622261915
N         1.71393711778429   11.38462493946736    5.66000055606341
N         3.55638199487441    9.23294271706698    2.78042297791874
C         3.60288887736384   10.31722477954710    6.67180529229032
C         4.40410864509094   10.12781523599559    7.78692770948775
H         5.25683586557229    9.47261602214055    7.71601199290229
C         4.10757946025663   10.78348815196923    8.98240989238332
H         4.75040981968968   10.61857978051960    9.83442897549943
C         3.02652865005988   11.62152871609969    9.10005041640118
H         2.80708803716914   12.11797767195809   10.03291592877781
C         2.18440764409601   11.84704140731323    7.99551208274956
C         1.05311395492702   12.68952946023892    8.02525603399364
H         0.79939023188241   13.19935409148806    8.94323189763796
C         0.29789849079246   12.84704132403641    6.89408143627436
H        -0.57359370115403   13.48215943840724    6.88510846272306
C         0.66455920415408   12.17572643112294    5.71890993094762
H         0.08868408903086   12.29612017868041    4.80853939235746
C         2.48034997481857   11.19572324643640    6.77026470152324
C         4.77319107890821    8.98851014980295    5.01487526492420
C         4.54632693363256    8.46999768146178    3.57680571636440
H         5.51433464613494    8.43323111827320    3.06308097777946
H         4.20824896879273    7.43616305111207    3.69194591188593
C         4.23867312623518   10.16318555330094    1.86543708537803
H         3.48116326242885   10.60108862889836    1.20712270725642
H         4.96620779623360    9.61450015164045    1.24844929998333
C         4.93877140352044   11.29530747110140    2.61722170837949
H         4.19605108432919   11.89730273304019    3.17503032153948
H         5.43518889881424   11.94838479760326    1.90291930242788
H         5.68775997886783   10.91325933206148    3.31065478623555
C         2.66409388822488    8.32292006341597    2.04133281108595
H         3.25580832722461    7.57405804092026    1.49580097501327
H         2.10390100420815    8.92266016925348    1.31811003628601
C         1.65734551813043    7.64085538211478    2.96775236542256
H         2.13732253035873    6.96467661708485    3.67431729264927
H         0.95246609298558    7.06584203937929    2.37221743319381
H         1.09048309076405    8.40698109382536    3.52942033915537

