72
CSD_code = WAQXAN | q = 0 | S = 0 | Stoichiometry = C22H41Cl4N2Si2Ta | MND = 6
Ta        9.74856293095875    0.27130441727520    2.76131673899626
Cl        8.11146949068492    1.74114451069229    1.99517508305174
Cl       11.25186882737643   -1.19174698330592    3.77074499900125
Cl        9.54036274352819   -1.05008633127671    0.95379139765689
Cl       11.40069140735660    1.56782753344451    1.95542061163768
Si        7.13169161791802   -1.86316064916345    3.79678806741240
Si       10.23312334634342    2.45615169488853    5.48964089183675
N         8.27094408489281   -0.54917440028039    3.98054244498614
N         9.48540716474110    1.11499112588036    4.65290823603646
C         6.19177508840184   -1.42289884890010    2.19493564952673
C         8.23188133023039   -3.40573638086936    3.57139333170037
C         5.91502742463423   -2.11624820513385    5.24313178623049
C        12.09537835728787    2.04090347854556    5.44250781462198
C         9.83032492288577    3.96738717772896    4.39606587218749
C         9.66407689020897    2.74987850416380    7.28722325802903
C         8.51105155908824    0.28785913757536    4.96822626880346
C         7.78502722868996    0.29179654660271    6.25020337222798
C         6.69361470029894    1.14774530519761    6.41375964755043
C         6.01544562893944    1.12530965979618    7.62282105973985
C         6.41551829397407    0.29985611386155    8.66443776141353
C         7.51015082747329   -0.53027116683268    8.47534102052297
C         8.20072411383832   -0.56284774159665    7.27204366492227
C         6.25826934731112    2.06454618353869    5.29278512496064
C         4.92899286678924    1.59808066870710    4.69320763423003
C         6.13277731159643    3.51681789185122    5.76110924878557
C         5.67836508714889    0.30196685322813    9.98139600807855
C         4.22604473967614   -0.14068061643947    9.79155250676662
C         5.74600082044974    1.68201821411428   10.63896995511663
C         9.38925266777630   -1.47588146483148    7.07369339936983
C        10.60304304828407   -0.94628363673960    7.84164708531815
C         9.09598069719724   -2.91551507319223    7.50220077804145
H         5.28413255287660   -2.00716621480421    2.08485959221425
H         6.81711555739687   -1.61726450626220    1.32817448097509
H         5.92173854693307   -0.37022850324641    2.16194723240468
H         7.65002773995047   -4.26043873619561    3.24310388191363
H         8.73949867545632   -3.68435172302413    4.49030630783277
H         8.99753243581199   -3.21607362415247    2.82276775382565
H         5.27278174749473   -2.95859901052808    5.00898812867857
H         6.41909504581406   -2.33381639210507    6.17716079180682
H         5.27977489292414   -1.25604547777745    5.41789118276153
H        12.66566412670611    2.67550157718604    6.11316853617974
H        12.28741326201508    1.00586344283946    5.71421336571101
H        12.48711381789978    2.18416818114585    4.43936966448846
H        10.37557378211682    4.84689182490528    4.72248911472555
H        10.10791056677424    3.76760833762031    3.36362606228961
H         8.77200258680977    4.21121746753673    4.40412942769395
H         9.96955917406555    3.74699651803599    7.58599634040606
H        10.11779434881428    2.05148277500568    7.98104835468155
H         8.59090501306939    2.67647611863359    7.41458237760392
H         5.16106599357597    1.76987895822272    7.75720279734441
H         7.82643510918989   -1.16939440647010    9.28614215200451
H         7.01544989772181    2.02371138966528    4.50193317078761
H         4.61975331676202    2.28390708854276    3.90809786840421
H         4.15094880357088    1.56750858627227    5.45355178255439
H         5.03322565227570    0.60779935206270    4.25859191552419
H         5.93658890526658    4.15952686524536    4.90606768441509
H         7.04844561444851    3.85223467130035    6.24107524383108
H         5.31098746769294    3.63192605813174    6.46400318386349
H         6.16807884366170   -0.41649862629636   10.64777234408490
H         3.72325939975807   -0.20230669263171   10.75408534921068
H         4.18726457478754   -1.11848937318428    9.31665566916026
H         3.68403497238801    0.56513969377554    9.16752326857404
H         5.27418249709541    1.65494596555370   11.61860132274652
H         6.78121373746843    1.99292255288698   10.76112023641947
H         5.23436341722875    2.42567975208950   10.03347545895684
H         9.64343885096143   -1.48084935350038    6.00792082968815
H        11.44687401830049   -1.61857699885470    7.70630214014445
H        10.38344325628758   -0.87140934446727    8.90496737189209
H        10.88442890977074    0.03523840985941    7.47105210837787
H         9.93210181626373   -3.55383805947249    7.22634038622134
H         8.96067992704188   -2.98510350240550    8.57883357435954
H         8.20075657957068   -3.29492855967055    7.01598082648619

