91
CSD_code = WARBIC | q = 0 | S = 0 | Stoichiometry = C25H45CuI2N14O4 | MND = 4
I         1.22718290800949    9.33838669268173    4.02989952938394
I         4.35022257612502    6.32548338298367    5.95270630591808
Cu        2.63539913080459    7.24446223110752    4.32139330950412
O        -0.54625367423792    3.72469647360517    3.17309587869218
O        -0.55218217264458    2.96115296566558    1.12749711558369
O         4.10819829343545    6.76038784464104   -0.72021160266717
O         2.85079758879679    5.35852809729766   -1.81468150243776
N         3.31832748237562    7.08548832092350    2.18775851315072
N         4.92373018602188    8.70740167288739    2.05038470664278
N         3.03083991683364    8.88341876723030    0.71146795000658
N         1.63979707706552    5.57897702565799    3.81837694552971
N         0.55933455594679    5.10176504464262    5.79599228417368
N         1.86998889239825    3.46996049103028    4.78510739598214
N        -0.01521526566772    5.53612245183474   -1.03721633658482
N        -0.79704689564567    6.70495547671326   -2.85265246089080
N        -2.27228859807686    5.48153396795825   -1.49939476085776
N         2.26232619218045    3.07998758394949    0.14510793114274
N         2.04846526160195    1.32106383878642   -1.38138053599917
N         0.70665842969963    3.31943669087246   -1.46984246312852
N        -0.05188344358643    3.66298745689288    2.03406485737579
N         3.22484905658852    5.89546819118244   -0.74845426498924
C         2.64097455989178    6.07868817882534    1.67280524591863
C         1.74298560925389    5.31277302444918    2.52915121692381
C         1.02831783519715    4.41712123891293    1.72878428589531
C         1.63258905731253    4.36610923382917    0.35106870239523
C         2.59652554867738    5.52034648887491    0.39306304195393
C         0.64674609195198    4.46998921509388   -0.78175487302496
C         3.76339088338792    8.18941979918719    1.60640865707163
C         5.10296208475449   10.11682564836389    2.32097229549079
H         5.89322666229334   10.54700678094535    1.70115037848096
H         5.38690909219232   10.23597356983064    3.36987669238152
H         4.17401760129752   10.65760118899724    2.16377895269813
C         5.89357213351981    7.84384204475618    2.68567789767698
H         5.82239450337222    7.88473423550011    3.77493552935625
H         6.89269617876978    8.16627464342776    2.38939563162187
H         5.74152372229321    6.81878764655342    2.35733193000166
C         3.63892298172815    9.78254307891938   -0.24082868400871
H         3.31873540453721    9.49074874942777   -1.24320549784845
H         4.71943737905544    9.69380481036965   -0.20257152834559
H         3.33563001814930   10.81716608348112   -0.06133535841401
C         1.64437294366062    8.59509036576899    0.44256516943735
H         1.52331224562120    7.99008504555117   -0.46203229336656
H         1.11693751597696    9.54220839095508    0.31446973988418
H         1.18933557525077    8.06856002620314    1.27610044638661
C         1.30957147716666    4.69911815913257    4.76235565003095
C         0.76415220874997    4.63651890520233    7.14760556778792
H         1.70687028199423    4.10129359076520    7.22231799122272
H        -0.05516725730373    3.99816405742097    7.48652553303298
H         0.81926893165882    5.50738891777521    7.80437249892961
C        -0.33565456968618    6.22526913201434    5.66075101219718
H         0.08963312796663    7.13116465675862    6.10055772094243
H        -1.27114275460415    5.99385159807142    6.17200074413281
H        -0.54767461980350    6.40163731205790    4.60938577248147
C         1.16200998752761    2.32857320136341    5.31814626191453
H         1.15376046752539    1.54172166305902    4.56065002036860
H         0.13069061190124    2.59897483111388    5.52575785193706
H         1.64396058301101    1.94050939458601    6.21877967469800
C         3.03621542152864    3.14705727095193    3.99484854466986
H         2.77841030052363    2.72484380022027    3.01747415440374
H         3.62836271234890    2.42040535293179    4.55233391142683
H         3.64617710296090    4.03442434317145    3.84332597301644
C        -1.01996981975962    5.85424688545791   -1.83769300006324
C         0.55137034465196    6.95429910399156   -3.32262958995561
H         0.87133015210121    7.96027627859785   -3.04209184759107
H         0.56982798154538    6.87659731753394   -4.41110659180104
H         1.25946730760412    6.24013516457385   -2.90239645950671
C        -1.77601775861885    7.65831531075451   -3.32871312099863
H        -2.10310358809052    7.42165674501232   -4.34413402025129
H        -1.31841719005163    8.64944502901446   -3.34460925625014
H        -2.63424616575226    7.69335651442916   -2.66462656821722
C        -3.32374390387866    5.24131669782389   -2.46274748462523
H        -3.66541534291566    4.20825914747761   -2.35949911521233
H        -2.96007962366110    5.37793462851236   -3.47712456430138
H        -4.17874334254426    5.89934795373077   -2.28986720571240
C        -2.49885407346759    4.92501632755136   -0.17896481549219
H        -2.13414173380589    3.89861446945493   -0.07818481522796
H        -3.56618743842015    4.94973895185771    0.02726043843707
H        -1.98427316934570    5.53767296663672    0.56047587720527
C         1.69914821323143    2.52158433569384   -0.85133768947161
C         3.29891350625497    0.77953029824504   -0.88713024354779
H         3.19382788590358    0.35318708649730    0.11516342513586
H         4.03322155764107    1.57936283608559   -0.84716946616356
H         3.63283965666694    0.00548491584369   -1.57693579340789
C         1.02724593357079    0.31140070200838   -1.59506373983545
H         1.03643847568751   -0.41535899711203   -0.77615955499320
H         1.22383332262898   -0.21615167009080   -2.53074475162579
H         0.03855124344385    0.75757873976429   -1.62702305921444
C         0.09162763128960    3.07804075021822   -2.74398926738729
H         0.72444187067468    2.40471341983739   -3.31920095922833
H         0.00631599317083    4.02243058643655   -3.28379496790794
H        -0.90501506535312    2.64218716078371   -2.62947704982178

