106
CSD_code = WARDEZ | q = 0 | S = 0 | Stoichiometry = C45H55MoNO4 | MND = 5
Mo        2.40665845323903    3.91162166973210    0.23597824940935
O         3.02912828210989    5.97598757891282   -0.47423317076254
O         4.10989749663856    3.55483322414532   -0.20330073194431
O         1.89694642154942    2.14820614827133    0.47120236087708
O         0.82664743489194    4.47168481218010   -0.40453408883779
N         2.47626816272695    4.51183623688625    1.84435366844484
C         5.58527214330856    5.41448193824508   -1.68887680590240
H         6.48256818300124    5.92821026776851   -2.04025620095889
H         5.45557361130482    5.60888829440668   -0.61844245423142
C         4.19746664104794    0.75940855575686   -0.46538569234883
H         4.07472417000024    1.14972479800320    0.55652083229869
H         4.64133026333581   -0.23717272457573   -0.41414888956564
C        -0.66455653250134    2.11910527306231   -0.77356766906270
H        -1.56260805207568    1.49860054584305   -0.80969078374308
H        -0.47884446839600    2.41963845910601    0.26901069027568
C         0.70301567130859    6.78595629736662   -1.97346918643382
H         0.79693601217105    6.91268764020122   -0.88925965294866
H         0.24861320312208    7.68201584525707   -2.40135161267232
C         3.30427421806094    7.12296086467202    0.32185822005940
H         3.14980456029940    6.79128626666158    1.35073235488570
H         2.62204101838537    7.94449872421255    0.07619682701562
H         4.33612707822496    7.46260686136296    0.17814771333931
C         3.15991805881427    6.15525358041218   -1.85504772076134
C         2.05459876773710    6.55533445463787   -2.60817220511053
C         4.38866968980300    5.90094948652696   -2.47240901344927
C         2.19316391684081    6.68142048564422   -3.98505647509659
H         1.32242677391485    6.97796872648342   -4.54531680110433
C         4.48013750589331    6.04360732810616   -3.84820532164384
H         5.43272494088415    5.83646111659303   -4.31053426102953
C         3.39624349346842    6.43170481535782   -4.62915443271671
C         3.56923883019435    6.56252877313133   -6.13411820544229
C         4.02008795109885    5.21031621411687   -6.70417910575095
H         4.97154336342468    4.89753666865024   -6.28356949827997
H         4.13146743090310    5.27877852463694   -7.78408165470831
H         3.28104890811837    4.44367070326877   -6.48097939499409
C         2.27505507210970    6.97128579391192   -6.84249924638795
H         1.92978447764447    7.94316579971560   -6.49777802445218
H         1.49202766054803    6.23365697535063   -6.68256159949726
H         2.45584909724466    7.04160709521284   -7.91298166565567
C         4.63363750840231    7.63097871137251   -6.42057844200447
H         4.33042959725292    8.58679977646162   -5.99859000853513
H         4.76082103890791    7.75268418081709   -7.49388401629150
H         5.59446788423309    7.35902353948061   -5.99290704688707
C         4.96197626363283    3.06426139244466   -1.09685891345984
C         5.74604350962785    3.92306469527789   -1.88075663196833
C         5.09132097253559    1.67494393918461   -1.26477828145592
C         6.61093704566487    3.39595668737134   -2.82596912683430
H         7.19482142189459    4.08799543851377   -3.41159870609355
C         5.97247381061999    1.18968367286465   -2.21194088457914
H         6.05516312852569    0.11843548044443   -2.32000265061698
C         6.74281335145521    2.02712961963266   -3.01545189154967
C         7.67402219911608    1.41746033277927   -4.05240495840707
C         8.71749202302499    0.54559047929315   -3.34082659315070
H         9.29536327402549    1.14704370506647   -2.64248765730151
H         9.39908764994687    0.10693943991274   -4.06672243850912
H         8.24628111565493   -0.26014557774538   -2.78529864986697
C         8.41592445499164    2.47571600284056   -4.87343384350104
H         7.71773748518946    3.10848600426668   -5.41697549524599
H         9.05919552145023    1.98479331767119   -5.60093875629411
H         9.04277318714913    3.09647163558236   -4.23766930939695
C         6.84951716007349    0.55606145412254   -5.02033893331566
H         6.36348270462921   -0.26646364317280   -4.50349196555920
H         7.49236504428739    0.13830602252372   -5.79238247294621
H         6.08111100506504    1.15973235600692   -5.49951341838511
C         1.76123732220435    1.41234582174311   -0.63809209794185
C         2.84517881401783    0.67849280762982   -1.14280129321957
C         0.51907079413101    1.32782316848124   -1.28957525085643
C         2.68320416486292   -0.08748371123124   -2.28779188029080
H         3.54388662849559   -0.62711842644978   -2.64773177020186
C         0.39947302878798    0.54788161138198   -2.42643823156239
H        -0.56741462549567    0.50680576366742   -2.90539846920964
C         1.46909211766672   -0.16833110235539   -2.95498540295257
C         1.26558132354373   -1.00390264795143   -4.20999449301908
C         0.76343744864155   -0.09836010856621   -5.34366026880147
H        -0.18640066387182    0.36456335452175   -5.09113766175696
H         0.62803262148024   -0.67751860962036   -6.25494403598199
H         1.48539859945214    0.69192024388340   -5.54029832950690
C         2.55527226294788   -1.68193437057795   -4.68058449470614
H         3.32438114720657   -0.94564039632483   -4.90354272694875
H         2.35733589796490   -2.24822586841340   -5.58868795519754
H         2.92890918271697   -2.37398552287494   -3.92973202192163
C         0.22659411331110   -2.09555299364580   -3.91866778905375
H         0.56848333409868   -2.72994026363702   -3.10377410116359
H         0.07393387876783   -2.71572555972061   -4.79970644100006
H        -0.72913976706520   -1.66408850494982   -3.63448691573347
C        -0.05039808505159    4.46766152042854   -1.40235138332539
C        -0.85636251388817    3.34284937002609   -1.63604829490011
C        -0.18589732850758    5.59126715297420   -2.23397119286961
C        -1.75073161523607    3.35432415540238   -2.69376065894233
H        -2.35330393211593    2.47325778935503   -2.84471178897833
C        -1.08781865762602    5.56095263881102   -3.28035881395802
H        -1.17099839986177    6.43932386801884   -3.90348743669288
C        -1.88475922817137    4.44939848770361   -3.53821713211177
C        -2.84763103078070    4.47782437294997   -4.71580309521369
C        -3.61738670578301    3.16468791392525   -4.87924636966555
H        -2.93802516430462    2.33312301494270   -5.05191649144040
H        -4.28245256067803    3.23824509290582   -5.73745185823171
H        -4.22465885026708    2.95520940091173   -4.00203467345364
C        -3.86617929693904    5.60671586153511   -4.50621079724893
H        -4.42074536736102    5.44419823359188   -3.58469576775734
H        -4.57137811154063    5.63558118220422   -5.33431039303702
H        -3.37671944290457    6.57448159886036   -4.44155107592363
C        -2.05329935597119    4.72723400393310   -6.00647982061453
H        -1.55254854263684    5.69124892294136   -5.98451195952002
H        -2.71949494552312    4.71164430049873   -6.86655443713723
H        -1.29988675647638    3.95318365084965   -6.13883318689106

