37
CSD_code = WARDIC | q = 0 | S = 0 | Stoichiometry = C9H21I2MoN3O | MND = 6
Mo        0.99128369866829   -0.00781982226183   10.62541515242715
I         0.10718091231048    2.00434652724203   12.36243076130410
I         1.28775898717001    1.83387641919747    8.53653452638581
O         2.53060269013041   -0.26784163160478   11.11718351955447
N        -1.27560823484630   -0.45288240630236    9.98182719358946
N         0.33698620673550   -1.67417195753397   12.00069891887117
N         1.12215128200847   -1.75673087068220    9.22117409071093
C        -1.89913345082337   -0.92172717336343   11.22955196140490
C        -1.08996499870039   -2.02210728522126   11.92291050645375
C         1.19063508260536   -2.76129726544415   11.50623470157724
C         1.03596471049835   -3.00729081414578   10.00513880571550
C         0.03532704466359   -1.66294870724527    8.24679791375862
C        -1.32417070818170   -1.49173997718087    8.93189837292731
C        -2.02754741499722    0.72574797331980    9.51967313673076
C         0.71693334924819   -1.38803983819840   13.38404780492811
C         2.40935609061113   -1.70720255735433    8.52976390509930
H        -2.92076843966907   -1.29081839185277   11.03858174230960
H        -1.97849260674961   -0.06285464067727   11.90455892586009
H        -1.50531994075343   -2.16348142783435   12.92728722500698
H        -1.21625228306314   -2.97509246870708   11.39914008124818
H         0.98722511098920   -3.69723755525466   12.05058520289195
H         2.22294565460492   -2.45912450754396   11.70453410559377
H         1.82619583204437   -3.70006225064329    9.69440221087022
H         0.08582124151007   -3.50836635014772    9.79871663124458
H         0.00592003842818   -2.55122202834344    7.59570795555195
H         0.22889933618386   -0.79178382830213    7.61308017681583
H        -2.06307432447376   -1.22764790171838    8.16541009846459
H        -1.65559095329204   -2.44203839258986    9.36313584917354
H        -1.64035051082475    1.06740579626079    8.55984975761253
H        -1.93433545695511    1.54705384972372   10.23193684641902
H        -3.09232715932858    0.48349029972244    9.40585940160592
H         1.73716339124983   -1.00288878312114   13.39778537570846
H         0.65660346883873   -2.28886616062928   14.00721164139979
H         0.06382272269571   -0.62328648108775   13.80001051645941
H         3.20706935532299   -1.69101453316312    9.27237808014258
H         2.48546384401937   -0.79402504880792    7.94212583226733
H         2.53732643212147   -2.56820980850362    7.86172107191505

