73
CSD_code = WARFUR | q = 0 | S = 0 | Stoichiometry = C31H33N3O4PRe | MND = 6
Re        3.25756087270107    3.33509391989134    1.90958511158879
P         2.02330669682863    2.03541307557533    3.46941359197064
O         4.01205655284296    1.71777687370209    1.21019960110937
O         4.64883071391446    4.19242885956258    3.14869477317363
O         4.56167659921542    5.19595840724191   -2.63951991510727
O         1.26561635847889    3.01422991321656    0.22139565661435
N         4.63663116716957    4.19162731582700    0.34605214469564
N         0.89144251345537    4.89905582314162    1.44208254757420
N         1.98826596804770    4.59857511029783    1.96114981453848
C         5.88146285684086    4.45379607785036    1.08457992774184
H         6.54590363619374    5.14024882337449    0.54570867533468
H         6.40374490557560    3.50363287608889    1.22443124857036
C         5.53647122990153    5.00835042105149    2.48144008534663
H         6.46183956974785    5.07807835293473    3.07665706608701
H         5.12642298179908    6.03178859583866    2.38308336242601
C         4.76836342561573    3.09852346454209   -0.62322649901643
H         5.64523243294961    3.22824603513965   -1.26935534947811
H         3.86915792464282    3.11371059075204   -1.24327368359294
C         4.82990723144775    1.74522499473415    0.11619629989621
H         4.55006595711024    0.94949681633357   -0.59780187517290
H         5.87239307479198    1.53257551586681    0.43401904161168
C         4.09960225858502    5.39914217297067   -0.28586250007579
H         4.03209670578789    6.17825561520151    0.47685445026703
H         3.08795139736984    5.17552734667973   -0.63624257313979
C         4.87780752464216    5.94972092137535   -1.48901986640053
H         4.57897126624676    6.99786726832016   -1.62793825899518
H         5.96205667321688    5.92903212684401   -1.30543033747709
C         0.51481368509167    3.96133952301086    0.50244518733146
C        -0.81449607074799    4.14005482136818   -0.09081010229020
C        -1.26088765175629    3.22517723044197   -1.04277267816359
H        -0.60048741961017    2.42518246265978   -1.34000653565699
C        -2.52655563838046    3.34879941179667   -1.58193581820712
H        -2.87121452252750    2.63906704937269   -2.32002971619788
C        -3.35477698915057    4.38309912890860   -1.17588041840613
H        -4.34545795909875    4.47806617096827   -1.59675447864402
C        -2.91371260176187    5.29652399666190   -0.22995171381392
H        -3.56348021275733    6.10098388855735    0.08330473156026
C        -1.64925942858039    5.17909709983135    0.31375906333198
H        -1.28613444456332    5.87296303627142    1.05471408192811
C         0.41678965121870    1.54167504595703    2.78562027295161
C         0.39596722331670    0.59393683589383    1.76461778920174
H         1.31782691756774    0.10155521403041    1.48802453564353
C        -0.78295256850067    0.32118589738410    1.09834250917905
H        -0.79926839513330   -0.41602861892565    0.30869553524947
C        -1.94134124315332    1.00928636612229    1.42597778411625
H        -2.85907255390239    0.80689250541006    0.89341911770713
C        -1.91811222637784    1.97263967517616    2.42000955498430
H        -2.81543850481177    2.52532726210804    2.65665712581534
C        -0.74242299689614    2.24429592528328    3.09754447862119
H        -0.71377326517955    3.00963701225979    3.86000039477491
C         1.63209835602641    2.75835778646957    5.09227250408089
C         2.14395386174528    4.00669010265967    5.42277780964912
H         2.75405153617313    4.52363140813154    4.69388521842652
C         1.87305171792551    4.55040996039956    6.66704866676103
H         2.26726767278813    5.52118015533674    6.92850742756229
C         1.09805001262854    3.85140539071864    7.57813908028669
H         0.88693283007140    4.27728551469696    8.54835591075772
C         0.59362161532267    2.60214782839052    7.25030338197915
H        -0.00708434723215    2.05735647032627    7.96424840072941
C         0.86103681233379    2.05218004781462    6.01041400661126
H         0.47209009734225    1.07784831549735    5.74819169259702
C         2.88849861608375    0.52017789512058    3.95781102785641
C         2.27254834538086   -0.71388218907763    4.11854108736007
H         1.21660462564528   -0.82517016602262    3.91459963454624
C         3.02106876091536   -1.80429177643115    4.52917610580914
H         2.54576455342711   -2.76739361585661    4.64866628834147
C         4.37507896482737   -1.66518740626109    4.78361691475454
H         4.95438661017843   -2.52132125910075    5.09806316014241
C         4.98820801813134   -0.43036824100104    4.63349352233924
H         6.04474876740695   -0.32616354954559    4.83424860833804
C         4.24744700439948    0.66147702861879    4.22372278909860
H         4.70075993045446    1.63572987614510    4.09255905435216
H         4.95702435850863    5.60926616784723   -3.41370553354249

