51
CSD_code = WARGIF | q = 1 | S = 0 | Stoichiometry = C12H28B9PdS(1+) | MND = 9
Pd        4.66963438741845    6.80950403989145    2.73090882365012
C         2.40436003714359    7.76195322081054    3.44490463318283
C         2.91326172581031    8.82116238478872    2.51203510780817
B         2.56479026184206    6.21601941971728    2.72947876673198
B         0.98228918174272    7.06108600653946    2.91863375423231
B         1.22444752863898    8.80334252995461    2.70941364778731
B         3.57473986822236    7.96941467235164    1.17250511340000
B         3.09348843085969    6.26329025725800    1.11598149770762
B         1.32630333191659    6.21536431736227    1.38793205212357
B         0.65319751930588    7.84965036761028    1.33165440322129
B         2.01389384376929    8.97483584464931    1.13879425484066
B         2.04600313485719    7.38722940019420    0.29534966977624
S         2.72098357535576    4.71466295916825    3.96016009304928
C         3.54601344792893    3.52368834745469    2.85707369039134
C         1.09829544410255    3.88594833136814    4.01708651011384
C         6.76644818025886    6.81070187436972    1.94604430780563
C         6.63941464484040    8.00076756191907    2.59413525290949
C         7.18828354137921    8.33962812701253    3.95703526534034
C         6.19349039491245    8.04087844110737    5.09205049274822
C         5.49839315068928    6.70631237397388    5.01732396726704
C         5.97897802590188    5.54105385743238    4.53765904823395
C         7.34902479160823    5.29735469617455    3.96579673534049
C         7.43933998208574    5.55945673499902    2.44899417720479
H         2.60561454479506    7.88764160571266    4.50793430047623
H         3.48912852890043    9.63909140434440    2.93719343613975
H         0.24174090138626    6.66742365498158    3.74145730100812
H         0.72416406884583    9.63770718257490    3.35517353170513
H         4.46212305588409    8.47868757571482    0.58658143135769
H         3.65975730005330    5.42750768158716    0.49732055395415
H         0.71952692400374    5.25627599389763    1.07957241916463
H        -0.41400024185191    8.03918791224873    0.89084533442017
H         2.08372464101116    9.99173207133530    0.56402893580999
H         1.97738417223046    7.37975112990933   -0.87354542218243
H         4.48808252266223    3.96523364311430    2.52751759636293
H         2.91239103613945    3.32746626758970    1.99767768262658
H         3.73315373967936    2.60718967082595    3.40922387530768
H         1.25293972017561    2.86114021558324    4.33844327957181
H         0.62864591163048    3.92069233291909    3.03978295511371
H         0.48014744631211    4.40071226394786    4.74433423025814
H         6.57767760610483    6.79587471188295    0.87073634545937
H         6.32629569143147    8.86220403781508    2.00589978606543
H         7.41262941955997    9.40761138995795    3.98562803321293
H         8.12771933765691    7.81571247045413    4.11978041175806
H         5.42793604559110    8.82586660559137    5.09961283963487
H         6.71393188615987    8.10290288810386    6.05325424073991
H         4.57151445503714    6.66351288586349    5.59187534853221
H         5.39634135923119    4.64407408825637    4.72873204357415
H         7.61312701633891    4.25201969592582    4.13605243477793
H         8.08069537254100    5.89940679726431    4.50018807557728
H         7.00184343793982    4.70715903280836    1.91625428392805
H         8.49458966996875    5.59790902368686    2.16109345076382

