35
CSD_code = WARGAX | q = 0 | S = 0 | Stoichiometry = C6H16B9O2RhS | MND = 7
Rh        5.62929104122147    5.31474791532251    8.81836580573500
S         3.03236091459182    5.28692439275716   10.91257681839631
C         3.67365730383967    6.95038310386061   11.29472401996141
C         2.51040002898524    4.87159142483145   12.61477866378325
C         4.68299200112364    3.33150866661603    9.25245422344225
C         6.11216664599469    2.97177759150489    8.75669632944186
B         4.66413378577342    4.27252493956033   10.63806042394253
B         4.37857975935211    2.54988590520694   10.79117723784013
B         5.34557104709034    1.71051835136183    9.58541222056355
B         7.21507192459115    3.87103079973718    9.63133893576802
B         6.30563459499206    4.71620799049353   10.95892405175096
B         5.48746680423988    3.37947239837310   11.91296196505415
B         5.93123580642458    1.80685545838617   11.24626349388791
B         7.02802182241675    2.08746226959185    9.89032705215784
B         7.13375892795474    3.17035683498177   11.28507134728556
C         6.73882257958581    6.74734183176172    8.50528686417082
O         7.36171967218160    7.69439143312936    8.29821060145100
C         4.41618765143001    6.06562599605940    7.59331517324289
O         3.78051713847853    6.71457988407516    6.87777983257769
H         3.85457902529332    3.23523907738427    8.54776541749349
H         6.23900595201096    2.77704159500702    7.69238949590585
H         3.28100483772236    2.16666788994054   11.00455303547051
H         4.92801629943356    0.81669485638047    8.94583050837609
H         8.25685789299883    4.15557065851727    9.14560364824478
H         6.68361618534431    5.65737661859052   11.57616992920758
H         5.23721477723455    3.54276740072502   13.05575418935024
H         6.00583460758118    0.85036560215459   11.92721372267301
H         7.87087650054879    1.38024487596932    9.47667431846156
H         8.07145616115253    3.14586677214758   11.99722825386577
H         4.11896447852654    7.34391933280538   10.38203326463558
H         4.43347649182596    6.87509598003318   12.06618895406027
H         2.85176944025703    7.58280739173950   11.61695177812718
H         2.14738829878737    3.85009293831069   12.60766302717893
H         1.71373597948026    5.54640637483046   12.91010388043919
H         3.35791362153518    4.95255544785189   13.28595151605612

