51
CSD_code = WARGEB | q = 0 | S = 0 | Stoichiometry = C12H28B9RhS | MND = 9
C         1.33495226911461   -2.58201418060124   11.98770091944133
C         0.68778286461029   -1.28623021885253   11.41800970939589
Rh       -0.51390025899041   -3.33807868607475   11.03079987734015
B         0.42371955685059   -3.36509135465531   13.13520210698234
B         1.73126923528682   -2.34267868300501   13.69138704288743
B         1.88270305603547   -0.99093250510265   12.57920795353516
B        -0.86140347730777   -1.20011783998230   11.94483421313752
B        -1.09905727357180   -2.56836983622893   13.11523577427813
B         0.13130801392160   -2.25522904784772   14.45703257206719
B         1.02456252535623   -0.77285923058652   14.11012544970856
B         0.39113279995861   -0.08949096203761   12.61712250218035
B        -0.74341798767449   -0.90936260586784   13.69601233059480
S         0.78092958005992   -5.24385179070159   13.36284309373231
C        -0.88345968926034   -5.86614316891078   13.75250975690813
C         1.45120673757603   -5.42809020007813   15.06263698225773
C        -2.25511094193670   -4.46631234305393   10.63223926306657
C        -2.28319505393999   -3.27524172989138    9.88317300373959
C        -2.01712512200970   -3.18750693937221    8.39686948787958
C        -0.73038715723608   -3.91510761005548    7.97659831849537
C         0.28710822551688   -3.94976263794319    9.09563630181340
C         0.39224887537171   -5.01530603237121    9.98971246291897
C        -0.52725545278947   -6.21626091438517    9.95502591755047
C        -2.01649394577353   -5.82723939971522    9.99669300044342
H         2.14556017742087   -3.03813508520357   11.41594769871144
H         0.98180820395714   -0.98437880380609   10.41509543381716
H         2.72101764420831   -2.84193534245657   14.10389208197117
H         2.92761253391253   -0.60776725455478   12.19461373704243
H        -1.68238008470746   -0.67687951440020   11.27515174036109
H        -2.15042944698146   -3.01092642145431   13.44342192054538
H        -0.08627250205264   -2.63849293642002   15.55685651125134
H         1.45165048880472   -0.09337301353314   14.97246333680365
H         0.37304681858991    1.03591043653690   12.27409654496074
H        -1.57121308669643   -0.30822336368819   14.28303039226607
H        -1.48035648932204   -5.76470996448666   12.85274054474706
H        -1.31480517252847   -5.26645364862809   14.54708010484840
H        -0.81318271172086   -6.90952487025422   14.04596054203534
H         2.50337162533963   -5.16931683017540   15.03408102903308
H         1.33512280593890   -6.46010423755806   15.37623845662227
H         0.92714329620966   -4.75354069667574   15.73088855172544
H        -2.92152191850085   -4.49367696910610   11.49275214421256
H        -2.95847874305638   -2.49932628702837   10.23621525314621
H        -2.87814081430287   -3.58455251836868    7.84569972446487
H        -1.92933485603328   -2.13039843252426    8.13636192249002
H        -0.29729726680227   -3.40577783711719    7.11270287925460
H        -0.95491994582082   -4.93698690150600    7.66646366615103
H         1.18726586845342   -3.36723391828983    8.90137456883378
H         1.37792285344393   -5.24284697804114   10.39729821855310
H        -0.31917423162958   -6.80750692159247    9.05547369117087
H        -0.29155852510934   -6.85141350189256   10.81246293587087
H        -2.43051418398944   -5.81699123624946    8.98716378015869
H        -2.56785971619479   -6.58815903420395   10.55476454859731

