73
CSD_code = WARHUU | q = -1 | S = 0 | Stoichiometry = C38H30CuN2S2(1-) | MND = 4
Cu       13.24810509464762    0.36108767727326    9.89862947536358
S        13.46872724215003    0.47031305910015   12.14965081503833
S        14.22310776407226    2.11497652558897    8.85268050187053
N        13.40410648560115   -1.55789204807240    9.69906638409740
N        11.71534098483709    0.14564536697091    8.73404514609854
C        14.14070661910545   -2.33320245197081   10.50158390542846
C        13.92919142475932   -3.69431550722720   10.58845621012205
H        14.55769211286490   -4.30247164465469   11.22102055693397
C        12.89172974958658   -4.27175960247192    9.84983898591015
H        12.71098938999445   -5.33572773316442    9.90909603887336
C        12.08985619393941   -3.46350631911670    9.07596938541047
H        11.24746308711381   -3.87053937808459    8.53645340737505
C        12.36023497023865   -2.09533216019692    9.00893310612545
C        11.58602461609822   -1.13033333267561    8.27598707212084
C        10.78739591969619   -1.41202688908587    7.16585309091159
H        10.71059865644539   -2.42678442901567    6.80430563717400
C        10.12487226121860   -0.38382908150460    6.53429304130832
H         9.49019379981523   -0.57689265092236    5.68098416263831
C        10.30744838795699    0.92518778392550    6.99062834852059
H         9.81735764147510    1.75148862986009    6.49869187180530
C        11.12572234951634    1.15085727968544    8.07911211767880
C        14.48070549368367   -1.01319992611431   12.58764679071625
C        15.15805380520601   -1.61663968644386   11.32767584749669
H        15.57924697706667   -0.79757106038331   10.73789622293339
H        15.94795074424182   -2.30497815221069   11.64112005478651
C        15.48022504960609   -0.47759680664163   13.57966113787816
C        16.77986634973875   -0.12274181800512   13.23683805623951
H        17.13037615978478   -0.24080659200333   12.22329197306231
C        17.64184905319133    0.40556280275625   14.18236681560199
H        18.64878831632937    0.67530663247455   13.89254257637197
C        17.22542790806310    0.59161886089480   15.48771877328428
H        17.90252380036830    1.00196071409086   16.22483835112581
C        15.92604076667294    0.25992834891290   15.83660289572354
H        15.58195865325297    0.41516064322916   16.85049443447424
C        15.06564408851964   -0.26511743533653   14.89407837753258
H        14.04744237606548   -0.50370825742144   15.16373930418649
C        13.63951418732747   -2.11428746087896   13.19920925104597
C        12.27235086730801   -2.19809803745774   12.98103484722140
H        11.78935691334871   -1.41068436741509   12.42122141652395
C        11.54169334243043   -3.26220035785791   13.47662811457977
H        10.47737337272747   -3.31429578052777   13.29166263639569
C        12.16779978496224   -4.25882731909804   14.20425184166772
H        11.59764463498256   -5.09210409683877   14.59302253510596
C        13.53130249430669   -4.18178834682320   14.43345494204250
H        14.02887770756966   -4.95562334604876   15.00352158025961
C        14.26162988429798   -3.12111198902905   13.93082519687935
H        15.32732290803141   -3.06835874126786   14.11067416956989
C        12.82835622971984    2.96722776144239    7.98995544589760
C        11.45897639096008    2.52146074175358    8.57101790901526
H        11.53819394068918    2.49824432745476    9.66145573489231
H        10.68924661724918    3.23385645162176    8.26128499076320
C        13.10734160692774    4.42859173303713    8.22756655140485
C        12.49607854354978    5.16609332180048    9.23511982112089
H        11.76890532781685    4.70549958073707    9.88564220160078
C        12.82133267956133    6.49655654665373    9.43493630968349
H        12.33283048347786    7.05101509246913   10.22527247428196
C        13.76327300509681    7.11798733042435    8.63567689836105
H        14.01273682638734    8.15886260420462    8.79228197978951
C        14.39428761576714    6.38737343595740    7.64177142111302
H        15.14512776310478    6.85627845366244    7.01981992704660
C        14.07170001142535    5.06030691889717    7.44312814705518
H        14.57973140086551    4.48837407935179    6.68079341987788
C        12.79629265642151    2.65047762627705    6.50907483311903
C        12.07287738498772    3.47413909563985    5.65211519166197
H        11.60062061665180    4.36582075549045    6.04289710867654
C        11.95774454422183    3.16722622550363    4.30924488984174
H        11.39417117194077    3.81926450130781    3.65457739224322
C        12.55610604102976    2.02582788825297    3.80242759823322
H        12.46064492287922    1.78278355101398    2.75249131409349
C        13.27709218213523    1.20137992403065    4.64803659377627
H        13.74738512204869    0.30754123033471    4.26127233833280
C        13.39775800554792    1.51387155229970    5.98956062821822
H        13.96735851927755    0.88089775156937    6.65418147641811

