145
CSD_code = WARHUT | q = 0 | S = 0 | Stoichiometry = C62H78FeN4 | MND = 4
Fe        3.27467128563672    5.17988179206055    5.65702988187924
N         3.92977589997179    5.15982766427439    3.69291998574110
N         5.28663987239309    5.22887686213123    5.36615322111399
N         2.65245409851458    5.04244700805641    7.63211972243948
N         1.25762638267914    5.23133692639547    5.98780823886252
C         5.20088475394550    5.25777008758634    4.04618729764230
C         6.34829445733395    5.39555134817499    3.12058629060642
C         6.17311512128825    5.90241822595531    1.83220743665682
C         7.25024276926467    6.03836640269443    0.97740610271152
C         8.52099755076114    5.67093077260420    1.38746662052851
C         8.70621290901034    5.16983524201522    2.66485439056042
C         7.63337724320001    5.03450123633962    3.52522346477868
C         3.46261490673673    4.81008916425793    2.43587955194165
C         2.55699115544772    5.67699421174654    1.79540349176512
C         2.13635540880730    5.37567444787611    0.51115137381911
C         2.55646017686114    4.21829265876992   -0.12137796478106
C         3.37669938870577    3.32951541170125    0.54636958294806
C         3.83917006747994    3.59948495384506    1.82497087272861
C         2.09826511389529    6.92665368969464    2.51148260410948
C         0.68603338179880    7.35098257067290    2.11277940743278
C         3.07463329485004    8.07958304993523    2.25468710369157
C         4.68737189788741    2.57795277505539    2.54853332786253
C         5.93191337513216    2.19534141048961    1.74514718122380
C         3.85378489729225    1.33511002977478    2.87556220484525
C         6.33173107338289    5.71175339980041    6.13742617921451
C         6.74178478607822    7.05679888651403    6.04612472893152
C         7.81695458314227    7.46584569174322    6.81760366703008
C         8.46482913668602    6.58512904808712    7.66602752870983
C         8.00034533977704    5.29064376460190    7.81178660736076
C         6.91589196423522    4.84372370118256    7.07590734756907
C         5.97725051939590    8.01357545992237    5.15185478848093
C         4.57372914335148    8.27466369163595    5.71883880933043
C         6.68779745761263    9.34709485416118    4.92530659451102
C         6.34026578976026    3.45623246556842    7.24003923907879
C         6.91150000191825    2.49210453877841    6.19456867475635
C         6.56131061060061    2.88751204343263    8.63973533779308
C         1.37113707802128    5.06646514200074    7.29476657384813
C         0.23950419326574    4.94164066161781    8.24248313033590
C         0.38421016997088    5.32918725643943    9.57444987058373
C        -0.67205916165019    5.22033654857413   10.45904706127928
C        -1.89212202369716    4.72077330206913   10.03550254831988
C        -2.04632414438585    4.33106481430620    8.71579713203584
C        -0.99383715964139    4.44058313603502    7.82638723587444
C         3.14837258329063    4.53250603367360    8.82502514380236
C         3.96689010139661    5.35925632322115    9.61887532167965
C         4.40197020017310    4.89308571995809   10.84730449601373
C         4.08244713857745    3.61633999220177   11.27683311219153
C         3.35944867580666    2.77675737182104   10.45260696585324
C         2.88830589416131    3.20790200885325    9.22185439904050
C         4.33196308693008    6.73165834732448    9.10413667119467
C         3.20179736966636    7.73583978965948    9.35643425344945
C         5.63305428372220    7.26853196479591    9.69630293901561
C         2.16009161716113    2.23747975413362    8.31994591508471
C         3.11138777666554    1.13569148328650    7.84257213243749
C         0.93934299590113    1.62485725238692    9.00991527490178
C         0.09515428781672    5.56601618431821    5.30741015925504
C        -0.57690077225768    6.77422086908775    5.56260441603626
C        -1.75979444652647    7.03261880819159    4.88756180699358
C        -2.27219076345504    6.13226716899991    3.97376372803022
C        -1.57126113363360    4.97562960965110    3.67900125656760
C        -0.37623081376067    4.68545347839016    4.31569348655192
C        -0.00831619823090    7.80341909501694    6.51252197661981
C        -1.00356721396203    8.17985432385698    7.61143924488705
C         0.43363242112024    9.04747465814482    5.73607226783774
C         0.41169028747631    3.43547074218026    3.99432132662582
C         0.27935593602517    3.02063178860988    2.52991641077066
C        -0.02123997468771    2.27353684596268    4.89510001245145
H         5.19222304647325    6.19503093651358    1.49484724965018
H         7.09398623365842    6.43274621109384   -0.01589809348722
H         9.36043531817704    5.77480662001132    0.71610705984434
H         9.69289140052035    4.88060952137849    2.99538012815275
H         7.79736462127444    4.64328906153454    4.51553890182552
H         1.47185534908852    6.04725829463443   -0.00971999154196
H         2.22600609792833    4.00090788076642   -1.12639523881493
H         3.66336933060657    2.40900672512837    0.05984547103069
H         2.10319017633583    6.70146655147196    3.58758230666899
H         0.67103174825175    7.77409555509203    1.11070299703961
H         0.31832092743485    8.10832365222654    2.80047054687408
H         0.00446091414409    6.50609738813787    2.15102429557993
H         4.05796053988422    7.84980670874830    2.65561772536489
H         2.71364004340833    8.99093773024881    2.72782160931204
H         3.16840556843028    8.26455920399090    1.18560563587474
H         5.01564473562105    3.00315988545302    3.50166655269547
H         5.66093907541256    1.65963623786542    0.83880698187305
H         6.57716971929097    1.55146704462928    2.33986966961084
H         6.49576074795889    3.08204827564686    1.46429423071942
H         3.02438401749849    1.60221055910362    3.52669059257885
H         4.46883839857133    0.59679799025799    3.38645615447515
H         3.45603548804317    0.88405362253486    1.96913017836273
H         8.16707306404099    8.48415189697929    6.76545660625771
H         9.31728422112945    6.92035465899549    8.23843101951229
H         8.49114835813403    4.62970235981893    8.50879277332004
H         5.86426417575814    7.54496928830795    4.16931393229939
H         4.64674943017563    8.67342244884416    6.72745462559084
H         3.96804177842097    7.35245586784298    5.74892216309069
H         4.05338393493431    9.00032215411210    5.09771709435363
H         6.73610529679848    9.92901921231617    5.84283982128235
H         6.14018257828209    9.92927097855993    4.18660212296386
H         7.69611613223589    9.18757337404380    4.55049599247839
H         5.25777487267594    3.54705554606988    7.06821389920390
H         6.63608251053132    2.80089885831598    5.18964980141927
H         6.52511253521620    1.48818026795143    6.36045803743848
H         7.99767736751312    2.45665640397616    6.26401028913957
H         7.60265186885788    2.61097399258919    8.79043815369617
H         5.95569979962591    1.99491520239851    8.77585054851804
H         6.27078105460825    3.60929916032156    9.39787057227855
H         1.32460712210843    5.72058219369127    9.92406599966236
H        -0.53970037772414    5.52779735576728   11.48591498722367
H        -2.71602277124544    4.63545859008818   10.72842866085438
H        -2.99252529178209    3.93841341214188    8.37366452616295
H        -1.13634635006116    4.12967362934922    6.80503461954945
H         4.99835295735997    5.52708066066358   11.48441721819323
H         4.42016849235319    3.27013533373336   12.24262115389675
H         3.15703866060894    1.76645991491229   10.77600004175556
H         4.46318297856131    6.62566316007392    8.02155014136846
H         2.30860572731409    7.46029778953111    8.80270123294574
H         3.50556578638748    8.73123620451862    9.03793331890772
H         2.95940179218558    7.77748301904801   10.41735049942132
H         5.49936017912049    7.56962129308120   10.73328820265980
H         5.96014696662412    8.14052052125473    9.13395543999742
H         6.41951607866434    6.52116272551608    9.64027014918286
H         1.82113631680303    2.77449123883445    7.42807321089916
H         3.92961936830264    1.56737320768159    7.27103235973471
H         2.57759863148045    0.43403435971335    7.20437414718236
H         3.52500230654770    0.58706341235751    8.68578341392431
H         1.24231774053328    0.97679793639460    9.82859776268280
H         0.36678578339307    1.02960444986763    8.30089722185752
H         0.29157239710810    2.40129081361476    9.41007585495247
H        -2.29330020421571    7.95166937912163    5.07963933577323
H        -3.20708658620911    6.33952901068702    3.47417042601605
H        -1.96819683088481    4.29469106189688    2.94232331629158
H         0.88455644994153    7.38549056378410    6.98787853882211
H        -1.86403311469636    8.69836856431996    7.19591776907080
H        -0.52815724956035    8.83716406525674    8.33693107218267
H        -1.35615936095974    7.29189009835687    8.13093843444161
H         1.18892165124687    8.77934308486392    5.00102348802451
H         0.85886271665290    9.78204301512904    6.41704278758952
H        -0.40914316425258    9.50273540008937    5.22073164614647
H         1.46981638222064    3.65779449864272    4.20078766793066
H        -0.70234080941554    2.59646004559490    2.33050689519163
H         1.02349870823370    2.26626364145008    2.28828788993884
H         0.43796199865400    3.87012596658372    1.87220918651168
H         0.17282694244768    2.49668758487863    5.94056095318816
H         0.52553346573337    1.37014671370700    4.63115797424447
H        -1.08567607266390    2.07757279352361    4.77418287575743

