145
CSD_code = WARJEF | q = 0 | S = 0 | Stoichiometry = C62H78N4Ni | MND = 4
Ni       -2.44887950915127    2.82811955430401    5.58742500447086
N        -0.54414646502692    2.74489349838183    5.44037108048937
N        -1.92139686135571    2.91262899618858    3.75245802512745
C        -0.64467913306756    2.82938403462231    4.11654368736655
C         0.50311582854074    2.83014431467938    3.18047980350248
C         1.74491762893307    3.32866858530098    3.57339901845395
C         2.81503221691284    3.32784912978458    2.69825219290035
C         2.67037386431655    2.82816020341391    1.41527629035215
C         1.44240674609421    2.33013161002829    1.01423029478439
C         0.36872481378969    2.33141271224667    1.88507172650346
C         0.61069258412092    2.35430397972596    6.11857141414740
C         1.19498079917304    1.09639272096620    5.88357363499831
C         2.38154421676759    0.78689555564858    6.53114796709481
C         2.98381844183601    1.68337909707133    7.39193974604048
C         2.37437957592089    2.89612147136477    7.66001399583996
C         1.17924386665198    3.24179718054389    7.05110968451861
C         0.54920351399043    0.06644111299617    4.98355588088630
C         0.04154990896191   -1.12090155522251    5.80731965601063
C         1.50802643573204   -0.41609208608886    3.89291103155084
C         0.49677304780419    4.55822058739015    7.34359205330474
C         0.97422348990139    5.65116604117265    6.38031087513739
C         0.70900455934716    5.01849258775026    8.78501352809693
C        -2.35559084549336    3.30193778265079    2.48522776749640
C        -3.15316604745863    2.41211325535902    1.74186762234329
C        -3.51164052613765    2.75682512462580    0.44909641190577
C        -3.13064609405612    3.97079649992442   -0.09433958790666
C        -2.41025532524404    4.86943012130310    0.66784138951887
C        -2.01213493338635    4.56086393290368    1.95989498365325
C        -3.57305775150137    1.09508509284511    2.35298177135801
C        -4.94312349568710    0.63290156520988    1.85930367207332
C        -2.53307823003158    0.00320795835390    2.07668716094393
C        -1.26067500097003    5.59184368917259    2.77235036359930
C         0.00079313683637    6.07258300501541    2.05147566343894
C        -2.16872221530664    6.78028502799151    3.10262815119955
H         1.88104774004529    3.72579439909263    4.56467285485207
H         3.76768544025268    3.71944459987502    3.02332598257068
H         3.50787265220206    2.82674881785851    0.73351585573042
H         1.31634203781214    1.93775445143167    0.01594284948808
H        -0.57525246791007    1.93577740817172    1.55121430525599
H         2.84759773496844   -0.17144469490858    6.35740629335159
H         3.91942729711415    1.43123770789909    7.86911969639999
H         2.84288820794301    3.57899862224771    8.35131358637950
H        -0.32186010760508    0.51427059660010    4.49708432413966
H         0.85432881097069   -1.58768881891662    6.35936553112334
H        -0.40162042932289   -1.86673171987051    5.15008353844738
H        -0.71717248052267   -0.79215827753381    6.51289784165213
H         1.94101775396912    0.42531015960803    3.35723585609548
H         0.97605633481778   -1.04232069860791    3.17905894342548
H         2.31713192857081   -1.00358681836890    4.31959880336562
H        -0.57983323547994    4.40689440621973    7.18188530595818
H         2.05936767722777    5.73952095977166    6.41191762891684
H         0.54558286624015    6.61109021332130    6.66287500675971
H         0.67144171365517    5.43338528547413    5.35920680664530
H         0.52384624542659    4.20470416317100    9.48062063357981
H         0.02005187379209    5.82541411081272    9.02159321702521
H         1.72102128709304    5.38896733132451    8.93372916115201
H        -4.09318671793787    2.07223324421547   -0.14829157709433
H        -3.41197314668414    4.22219483518874   -1.10641942171046
H        -2.14946033975098    5.82860130581109    0.24613568227290
H        -3.62834223923103    1.24665720973605    3.44032165194968
H        -2.35436133799970   -0.09074913508114    1.00642780540534
H        -2.89069765977047   -0.95545657763945    2.44822110606153
H        -1.59014708317583    0.22591796266458    2.56959492710382
H        -5.66316575161117    1.44518671320240    1.90481894011678
H        -5.30945744550550   -0.17590936232757    2.48647698030346
H        -4.88823407706581    0.26434441468081    0.83722853468939
H        -0.95977576874444    5.14494875739378    3.72406212758846
H         0.60597124852614    5.22998553899378    1.72548648130861
H         0.59995431727141    6.68968486924873    2.71852159474075
H        -0.25478662169761    6.66885040437425    1.17906104656497
H        -2.54203006571506    7.24928400672537    2.19482037850756
H        -1.61430833460121    7.52416752170119    3.67185306800848
H        -3.01521424355822    6.45233329587386    3.70063692572736
N        -4.35361412370868    2.74497240074038    5.73448713798739
N        -2.97635104775884    2.91262522416444    7.42237960244091
C        -4.25307493522667    2.82938392767336    7.05831205593373
C        -5.40086437052157    2.83014059895368    7.99438936112712
C        -6.64268535538651    3.32867835316138    7.60147481172866
C        -7.71282474781674    3.32775031176523    8.47658812482175
C        -7.56813431230692    2.82812255991699    9.75960356336964
C        -6.34008939844238    2.33021608762147   10.16069898237119
C        -5.26642324814982    2.33146578507609    9.28982754746941
C        -5.50842527474241    2.35434103314429    5.05628608600606
C        -6.09268990791944    1.09642685834437    5.29131851349296
C        -7.27925166085865    0.78690019826655    4.64374403689840
C        -7.88149804728366    1.68333002491617    3.78287463928536
C        -7.27206580851985    2.89607280464080    3.51476307360302
C        -6.07696117325558    3.24180306805565    4.12371002277166
C        -5.44684628720063    0.06651777082173    6.19134090603195
C        -4.93921936303389   -1.12082277703698    5.36755727235609
C        -6.40561978854959   -0.41604087132433    7.28201658942096
C        -5.39448505299879    4.55822359799694    3.83122498203001
C        -5.87191957093284    5.65116277795993    4.79452171853050
C        -5.60672019614685    5.01851823196368    2.38981867288129
C        -2.54216074618793    3.30187428135287    8.68963373151145
C        -1.74459337710612    2.41201787990827    9.43295609199030
C        -1.38608138085545    2.75671824105809   10.72571591538225
C        -1.76705712626802    3.97070069028601   11.26915987606734
C        -2.48745454103427    4.86936017135908   10.50700710589089
C        -2.88562391184750    4.56079065168986    9.21498560933727
C        -1.32477726458521    1.09499783642798    8.82178383354174
C         0.04530823343971    0.63281855684971    9.31541864081854
C        -2.36476751616566    0.00313821031632    9.09811175809380
C        -3.63710515459978    5.59174037351709    8.40251415520203
C        -4.89850988600748    6.07267959810685    9.12337680767707
C        -2.72909316346329    6.78013935930405    8.07193635462090
H        -6.77875803686804    3.72599836371345    6.61028981365939
H        -8.66534223714157    3.71967917649459    8.15164778981635
H        -8.40562202197905    2.82675799371801   10.44138075247934
H        -6.21410506452269    1.93749189630874   11.15884603663482
H        -4.32252780254067    1.93563947694607    9.62359319796909
H        -7.74528527963460   -0.17144129567032    4.81750372585966
H        -8.81709915276728    1.43115950331874    3.30568957046392
H        -7.74055823710252    3.57890850581981    2.82341279635884
H        -4.57576111532342    0.51436972768734    6.67776535641555
H        -5.75202050300130   -1.58769893016465    4.81561381403123
H        -4.49592616053245   -1.86658897295450    6.02478342522745
H        -4.18058914184248   -0.79204591590900    4.66189250144678
H        -6.83859829205113    0.42535498242381    7.81771182897630
H        -5.87358387559456   -1.04224358983387    7.99584223666701
H        -7.21473750330320   -1.00356610887442    6.85537964801897
H        -4.31787456090183    4.40691483876219    3.99289503752591
H        -6.95706688576985    5.73948748196450    4.76296766830720
H        -5.44332489785965    6.61109401108222    4.51191667129859
H        -5.56908867164465    5.43340348045862    5.81561546858931
H        -5.42159444435987    4.20474874921622    1.69418001763551
H        -4.91773226012501    5.82541794853959    2.15327828003538
H        -6.61872469653055    5.38904038723442    2.24113453943001
H        -0.80462981731900    2.07206567647188   11.32312217706259
H        -1.48573669992694    4.22208033545135   12.28124916162280
H        -2.74821014912605    5.82854057653673   10.92870689538810
H        -1.26955811033545    1.24662595103927    7.73444142514368
H        -2.54335347163283   -0.09095869518764   10.16838222187393
H        -2.00719119640881   -0.95547304851214    8.72640368200791
H        -3.30775578896680    0.22591323297669    8.60534114998417
H         0.76535110111557    1.44510132939290    9.26991288197549
H         0.41160630828909   -0.17594985387301    8.68817779357811
H        -0.00953286192579    0.26419958104030   10.33747549338798
H        -3.93806045351997    5.14472957178754    7.45087758898346
H        -5.50353306584725    5.23011786827324    9.44972786933198
H        -5.49785240455238    6.68953405184301    8.45624839599408
H        -4.64286420650704    6.66922087339776    9.99558310525080
H        -2.35709211782521    7.25028059125163    8.97973418321546
H        -3.28313466628718    7.52324586915384    7.50126098669209
H        -1.88171790812932    6.45174096460708    7.47527499591819

