57
CSD_code = WARLIK | q = 0 | S = 0 | Stoichiometry = C22H31NO2W | MND = 9
W         2.94860302772243    2.76936603660925    1.49796236039086
O         5.83023787199463    3.18081573006079    1.98808093189593
O         2.32477303265765    4.94650158231220    1.74488945771640
N         4.65201454364665    3.08768895284546    1.84342115265360
C         2.82768356231012    0.50132986740302    1.20910986462275
C         1.52237172893400    0.87211056443098    1.67789889096290
C         0.95202562298319    1.75425771026954    0.72727084749781
C         1.84388182372303    1.85772326529279   -0.38732974806935
C         3.00264350660864    1.08236349104166   -0.10174774449634
C         3.68977797112733   -0.59415936837945    1.77481006189525
C         0.82528062331007    0.27051061057618    2.85987236315355
C        -0.44222854900024    2.31245686844976    0.75882891406684
C         1.49699768695310    2.46097301896531   -1.71696428306763
C         4.10781651078352    0.72390404372846   -1.05369052025453
C         2.76786302521982    4.62894688661238    0.64797394945187
C         2.90626347975916    5.60412698521298   -0.48407061788239
C         4.39499399561711    5.87751439251020   -0.80410861255803
C         5.10101114766434    6.35310202703923    0.46589205752649
C         5.05396563414356    4.60262480233141   -1.32986170701035
C         4.46663466952461    6.97072035320873   -1.87329661391969
C         2.55745484549467    2.73806842098790    3.60373122690644
C         3.37174099813686    2.03304219782965    4.48530039853035
C         3.03746174463923    1.89128467843875    5.82315372508386
C         1.87055385575181    2.45406799843579    6.31038416578572
C         1.04755162089279    3.16332907434127    5.45338552085703
C         1.38997666685029    3.29457102390300    4.11686702432583
H         3.43788088833276   -1.54973664471176    1.30956470156535
H         4.74396278149772   -0.39076428535187    1.58873190583977
H         3.54273590751810   -0.68866874757523    2.84873312478986
H         0.32948672882699   -0.65414005303238    2.55530945624166
H         1.52734230199200    0.03519778266837    3.65706093824581
H         0.07269621133347    0.94232418806023    3.26720173640255
H        -1.10751747921489    1.70511884125245    0.14093333200500
H        -0.47038515783811    3.33434932498522    0.37643677672229
H        -0.83720138048556    2.31826762272905    1.77295232717342
H         1.01855996363847    1.70586744441887   -2.34511718404285
H         2.38536408470468    2.81400797995648   -2.23720724363983
H         0.80024313910420    3.29067239281405   -1.60794846110853
H         3.92472860371428   -0.26476839708270   -1.47969201472739
H         5.06907976708595    0.69885462245756   -0.54180528565513
H         4.17352745650207    1.43940714743298   -1.86983898798885
H         6.14141949436727    6.58732925336779    0.25495503331866
H         4.62046504952586    7.24580702534298    0.86066710914759
H         5.07425763617000    5.58346270517339    1.23614829113967
H         6.11438254560882    4.77221048781462   -1.49722895496370
H         4.60441794149412    4.29957284652103   -2.27381466110608
H         4.94605041259623    3.79173600939193   -0.61020941206157
H         5.50358412611331    7.17429488826480   -2.12873819171814
H         4.01742825803403    7.89385411944960   -1.51398730328108
H         3.94563667810838    6.66427557158590   -2.77820984907444
H         2.41422565540244    6.54349700833612   -0.21199469963776
H         2.42767261918557    5.19452180918810   -1.37634260073454
H         4.29629661566676    1.59119761937354    4.12744338637684
H         3.69011535531727    1.34079979684440    6.48705505941318
H         1.60573479871209    2.34369077179729    7.35241875532963
H         0.13579706177365    3.61139485804156    5.82559382982913
H         0.72816128777812    3.85992479601658    3.46416602012856

