25
CSD_code = WARPOU | q = 0 | S = 0 | Stoichiometry = C4H10B6FeO4 | MND = 6
Fe        2.57771463428993    2.07042315010466    0.12890149316910
O         4.33357504393844    4.24178851312886   -0.69300660664694
O         0.29043464281030    0.89019411047355   -1.23109909753904
O         0.71348478431172    4.23046647593521    0.67920118437402
O         4.08216914365044    0.58214238776450   -1.86345938241901
C         3.70064291060798    3.37180068011959   -0.28323680843885
C         1.18257658648671    1.28316366519270   -0.61883721571067
C         1.45633646354312    3.35659337677333    0.54159861247438
C         3.52805844369504    1.10986653647561   -1.00824001756902
B         3.03385689842812    0.89188463298569    4.05673816223715
B         1.92632674623871    2.15840069538641    4.58229942866956
B         1.34476850042776    0.75656485987587    3.59197080456477
B         2.57768259505955    0.41802837723107    2.33909515641855
B         3.84130702685871    1.45505939736045    2.50303741154542
B         3.54610443302861    2.56306204211941    3.87760402415211
H         3.56445849657906    0.13179392998483    4.77486698742267
H         1.62184951379379    2.35279734316319    5.69960075808931
H         0.54072300029512   -0.00422689924218    3.98146134320864
H         2.59496278850700   -0.68124772018150    1.92254091501782
H         4.96954803136160    1.26748874156857    2.23074016519698
H         4.37239577172532    3.14013767778914    4.47862830451425
H         1.32960753393606    0.89582000607357    2.29155428167009
H         0.87042735016530    2.00899838958574    3.85758599538909
H         2.37616699777863    3.24464135614864    4.05293679509790
H         3.61322166248395    2.76995827418466    2.58781730511251

