38
CSD_code = WARQIS | q = 0 | S = 0 | Stoichiometry = C15H17IN4Pt | MND = 6
Pt       -0.40808091773639    1.11165210705336    9.89651707334495
I        -2.45225416654283    2.89289271806712    9.54204685479052
N         0.29431046627867    2.38307821580720   11.66404217785299
N         0.82335851921155    2.49578386971955    8.50528975339502
N        -1.97805333026765    4.31697287590934   15.37358630204092
N         1.39178114917604    7.20563556522549    8.30574648406306
C        -1.06753352750727    0.00289835705267    8.29583459196310
H        -0.42082589336839   -0.83920264120911    8.04649359411766
H        -1.12603765625216    0.67717538087781    7.43642033575388
H        -2.07144397532293   -0.37750952889399    8.49232926048332
C        -1.44673441332480   -0.15649601907802   11.13961850863404
H        -2.50121301339895    0.12460576553255   11.13743330593132
H        -1.05115283443629   -0.05489461997822   12.15388614608714
H        -1.36684523201665   -1.20207485160916   10.84418835800497
C         1.21142919600697   -0.14377618628026   10.17154283039204
H         1.03567868673052   -1.18077675204314    9.89175891710106
H         1.50728606455069   -0.13410874701888   11.22254032963333
H         2.05177964564808    0.22573229939582    9.57793787053555
C        -0.58458923524333    2.78101560384090   12.57254371504817
H        -1.59999442423164    2.41961146338854   12.47834389437905
C        -0.24287384077413    3.64428094444690   13.61473674564600
C         1.06554385108244    4.12261935196771   13.69419858214870
H         1.35256311400735    4.80268647919704   14.48204428902256
C         1.97214667493577    3.69680865363170   12.74045220176873
H         2.99612996724990    4.03435140905640   12.75846668974119
C         1.54653038729432    2.82151490641035   11.75352734809002
H         2.24106532249025    2.46110739044892   11.00575854797101
C         0.81690282890564    3.80667073600502    8.69387043957595
H         0.37682640213567    4.18563438446898    9.60651536164838
C         1.34252384267154    4.70438395362611    7.76408486764209
C         1.86609216494049    4.20706485705429    6.56982092478687
H         2.25865202890820    4.88061690646274    5.82292771404832
C         1.86650992734709    2.83732692308575    6.38427238758316
H         2.26080743079551    2.40042738350541    5.48086114124997
C         1.35047501565458    2.02120620025523    7.38030488080548
H         1.35619430999722    0.94573262773060    7.26731059213861
C        -1.21137768044687    4.01831272735537   14.57778541211800
C         1.35352314522605    6.08923928955133    8.05386157042205

