29
CSD_code = WARRUC | q = -1 | S = 0 | Stoichiometry = C6H10CoN4O8(1-) | MND = 6
Co       -0.40821538642414    1.23846008988210    2.34881830658617
O        -1.79463828727138    3.30417998315115    2.76485737254951
O        -2.49643610211728    1.57233810266103    3.82550210036439
O        -2.40211844043473   -0.37764507901616    2.09334163848110
O        -0.47259981809201   -1.28315523241945    2.36446181811035
O        -0.85355919183807    1.48556361940592    0.50972307972973
O         0.34318375566858    1.08694481981686    4.09644810838005
O        -0.27579901568850    2.50451108500304   -1.37143548954533
O         2.22217715438375    0.83697934518131    5.24415940864592
N         0.80088030154430    3.07347610879857    1.96925923528666
N         1.57998215248803    0.40767907951817    1.77315789193009
N        -1.76263828613819    2.11756643313222    3.04205155747642
N        -1.21783160724363   -0.32056689687940    2.30220885899278
C         2.22024691161210    2.74663173302042    1.92180691519369
C         2.40162781796469    1.43868170883800    1.15217976868473
C         0.28168731891083    3.58388111814682    0.69734714009586
C        -0.32384534601091    2.43290767055151   -0.15466443336835
C         2.13426202844700   -0.09250960696975    3.03426684152467
C         1.53997609699258    0.68068033526258    4.24511452579227
H         0.63881785954232    3.76356522032027    2.69863401006796
H         2.58064982531819    2.61596455237857    2.94548667377356
H         2.80790778980244    3.54529733298176    1.44050420705235
H         3.46789269817355    1.15969977756792    1.14013259864228
H         2.06483219217633    1.57676771594012    0.12145512787404
H         1.46739450429297   -0.36824136290837    1.12527676580721
H        -0.54519256238164    4.26767749823318    0.89848399274036
H         1.04924678761921    4.11161698008201    0.11711401416865
H         1.82938811147698   -1.13187944525168    3.17033981005680
H         3.22992073722667   -0.03507268642865    3.05826815490646

