29
CSD_code = WARROW | q = -1 | S = 0 | Stoichiometry = C6H10CoN4O8(1-) | MND = 6
Co        6.76336129460502    9.96329413595163   11.07377964243472
O         9.11932331430783    9.31497883512382   11.70217269582048
O         7.93978254389919    9.98641784676021   13.36830173573970
O         6.68766415536492   12.10771321310676   12.50520239379526
O         4.80230191805159   11.39187292974874   11.76437671715677
O         7.58018018639337   11.22331820708163    9.89627225220939
O         5.86203275586543    8.54090524601709   11.97167136728203
O         8.42280241063374   11.52201963381032    7.86863759296210
O         4.34979246792047    6.93513595185368   11.75948113691329
N         7.59324692161132    8.52244240207062    9.58810952723245
N         5.07083773655559    9.70048728138816    9.64442743843932
N         8.10452793854470    9.77796428818670   12.19408849448319
N         6.00699029504500   11.30074252228111   11.92666476597187
C         6.52380187806798    7.95758944479785    8.77513674015161
C         5.53505777908941    9.06671796590734    8.41706438489870
C         8.54830615978032    9.32085796928076    8.81462541484149
C         8.15476443409433   10.82487353176795    8.83294708363623
C         4.10357180276394    8.88679060007613   10.38592419925805
C         4.81845417451635    8.02115480261154   11.46136490133971
H         8.08952134966314    7.77053809293359   10.06009792619997
H         6.00999136113603    7.19136649763199    9.36137339031153
H         6.91217043702566    7.49458899764335    7.85329108667734
H         6.04232279901545    9.81948680367182    7.80812508180620
H         4.70019234089333    8.64558772508038    7.83346443478730
H         4.65100522629567   10.59946556032097    9.42093594249148
H         8.63726022174537    8.97254251025674    7.77780510529757
H         9.52787209065623    9.26719874972135    9.29328246395359
H         3.50919431979219    8.24295991837219    9.72511501456217
H         3.43176968666689    9.54658833654543   10.93826106934664

