22
CSD_code = WARVAM | q = 0 | S = 0 | Stoichiometry = C11H6CrO3S | MND = 9
Cr        3.17049575946476    2.41811788749724    1.18231386838013
S         3.42167491911845    5.64312685595112   -1.72727117307780
C         3.00107678248879    3.61554885444998    2.55388164827273
C         4.97049471115215    2.52785299081140    1.48659419917368
C         3.26314991384157    1.23931457444301    2.56525808266010
C         2.09321370983369    5.14432733336884   -0.76669874867768
C         2.11664427311017    3.79425982164171   -0.50795471106351
C         1.19566310919559    3.00398632131979    0.25412604813345
C         1.30756220030562    1.62041610611148    0.22888933009513
C         2.42645943765266    0.98965342724279   -0.37406686402780
C         3.43987960892903    1.73768451513451   -0.95771336569939
C         3.25932790455173    3.14919391828272   -1.12562098421849
C         4.03745056245270    4.04651334687219   -1.81804774996882
O         2.91339278091285    4.30804034214991    3.47124216934033
O         6.09291230258946    2.55698227722943    1.74720444514177
O         3.37450095296557    0.54774282878772    3.48296783422183
H         1.36531186617289    5.86411639394872   -0.44814510235050
H         0.31526279044252    3.48110377789020    0.66829821539831
H         0.52102164016324    1.00612855566015    0.65184771269217
H         2.47079861990448   -0.09311886691619   -0.39835483882474
H         4.26581748302214    1.25204646031657   -1.46384211413935
H         4.93168867173000    3.85066227780667   -2.37600790146160

