34
CSD_code = WARWAN | q = 0 | S = 0 | Stoichiometry = C12H18Cl2OTi | MND = 9
Ti        0.28893257922268    0.91872995808187    2.96916038141810
Cl        1.92016885065831    1.19113791938042    1.53472835837015
Cl        1.68130450353562    0.75433095052867    4.67192538328529
O        -0.19045466449300   -0.73328873973470    2.01218577405336
C        -0.26153156837375   -0.95946701991579    3.22858954321881
C        -0.43049039652875   -2.34949263484113    3.75071667443962
C        -1.90430962174497    1.37400581979265    3.51188721047606
C        -1.04117173233341    2.18675694347972    4.30314396954522
C        -0.29709776155689    3.02312644098928    3.41999816533285
C        -0.72401966506789    2.74395441352806    2.08443622904915
C        -1.71053350034476    1.72452690349528    2.14519797188417
C        -2.98593955355189    0.47311700645656    4.03382619613551
C        -1.03034347195581    2.22790962963092    5.80196314539125
C         0.68966522638393    4.08229163877160    3.81877477191687
C        -0.32066494166605    3.49626651270572    0.85137984654438
C        -2.50680055511189    1.18465010018279    0.99415703186430
H        -1.23352049158291   -2.37870651582141    4.48499686517056
H         0.49392878601649   -2.61232085866388    4.26954457543642
H        -0.61900804752322   -3.06133387884569    2.94266793489298
H        -2.70515022236462    0.03794944756406    4.99154382231642
H        -3.20282431402124   -0.32938027188095    3.32949107831223
H        -3.90431547618446    1.04711986357864    4.18053116187005
H        -0.10291984651521    2.65810664365214    6.17353671205765
H        -1.12644654840699    1.22492895415249    6.21699933707759
H        -1.86414448738433    2.83449243822347    6.16339778924824
H         1.12619337156677    3.85562025758981    4.79121944695143
H         0.19907447037177    5.05695405863044    3.87755127242564
H         1.49945431917534    4.14713041950361    3.09046599537775
H         0.61028891210463    4.03524067859724    1.01274405685106
H        -1.09700167667350    4.21898838829966    0.58795962523998
H        -0.17758172987588    2.81984726016965    0.00904371860636
H        -2.09790720230068    1.53027357479851    0.04743654790706
H        -3.54422249152362    1.51890798318226    1.06530674097320
H        -2.50301105195023    0.09262571472979    0.99029266635789

