65
CSD_code = WARWIW | q = 0 | S = 0 | Stoichiometry = C30H28Cl2N2O2Ti | MND = 6
Ti        8.84290877513231    4.56913537679452    9.41605365374390
Cl        8.88766560796437    4.24815665271500   11.65438173433773
Cl        8.83787447942605    2.33704109163379    9.05107766990672
O         8.83798805868947    4.80213042392594    7.63152297471218
O         8.81453388748025    6.34064329596958    9.73031406802519
N        10.93151319280702    4.51909239989418    9.21919079656812
N         6.75253020880485    4.69845015875558    9.55390305190765
C         9.49152273744324    4.13587287293614    6.72823043390437
C         8.89827663971881    3.81262120452354    5.49230477379798
H         7.86756917647218    4.09334840952979    5.33692222477490
C         9.59840301688250    3.12690911683054    4.52880884430792
H         9.11331084704396    2.87205963286743    3.59798728146134
C        10.92691289532826    2.75639547469522    4.73660295494114
H        11.46544952495974    2.22246345519054    3.96932914033386
C        11.53906954168314    3.07055778748121    5.92533613294051
H        12.56540521627002    2.78108585219049    6.10289002239943
C        10.84558305987368    3.74391674463863    6.94182449646755
C        11.51037119263840    4.07023878972782    8.16574424557208
H        12.60036860111864    3.93867367181776    8.17328415955889
C        11.73016500485459    4.88544677588712   10.33016493383100
C        12.14332036947649    6.21763960497926   10.44165479807740
C        12.86199800691134    6.59778742176116   11.56578676492578
H        13.17378236315653    7.62703626523556   11.67073172499314
C        13.18692437684077    5.67316613880459   12.54158872133072
H        13.73835569264016    5.98357819172494   13.41630082490772
C        12.82481973177097    4.34788236835927   12.38667274298075
H        13.10308659091602    3.62268521549365   13.13667473637909
C        12.10345197542508    3.92574551202259   11.27829717951959
C        11.73564788069682    2.48569581200918   11.09816952110013
H        10.65122800914040    2.36392260306739   11.14701147710383
H        12.18762574352609    1.87889064755391   11.87831164115719
H        12.06105473901412    2.11158052957118   10.12685313624052
C        11.84961046789304    7.19234169227302    9.33723492032346
H        12.07793616481810    8.20799934894838    9.65311625599119
H        10.80121228527579    7.13180555004519    9.03531185491883
H        12.46144839146185    6.96368851211204    8.46213683463053
C         8.15957950541002    6.98989079289289   10.64494081794584
C         8.73924936108837    8.08512979900736   11.31455375774147
H         9.76198907084326    8.33830600165527   11.07961465965291
C         8.03686657001098    8.78616817319351   12.26528354203267
H         8.51201740986658    9.60846986761528   12.77981978966003
C         6.71878281158968    8.45040951051110   12.57392561918623
H         6.17805753967549    9.01293366735188   13.31890980420284
C         6.11973711959511    7.39685034315918   11.92761828235525
H         5.10168413012614    7.12047670613295   12.16397444692228
C         6.81657515525940    6.64134044744407   10.97305463216331
C         6.16493422542145    5.55780168390264   10.30377823794424
H         5.07747234705094    5.49029061975142   10.43908841878869
C         5.96714683820707    3.73456528184151    8.87573203675791
C         5.53186523293037    4.02568062841878    7.57810219057130
C         4.83106992941536    3.05327503037505    6.87955911568919
H         4.50289320773342    3.26014129511141    5.87104516976969
C         4.54498364203064    1.83286926442857    7.46394090145770
H         4.00834218403882    1.08047292709184    6.90585185453020
C         4.92651597073601    1.58467964101848    8.76946434095735
H         4.67769877019888    0.64175248839101    9.23293187691107
C         5.63058673975456    2.52954743439282    9.50329489197153
C         6.01617417175012    2.27318922391176   10.92711092152239
H         7.10350741871654    2.23533443509117   11.02437969769853
H         5.60485144221370    1.32608714481427   11.26611743803667
H         5.65849093335480    3.06802243365877   11.58273075349633
C         5.78417472399195    5.38264604100677    6.98549181860580
H         5.53947208670233    5.38827878588341    5.92552169872068
H         6.82809998239175    5.67633230283654    7.11964366063219
H         5.16185702633175    6.13057342711561    7.48119289595633

