58
CSD_code = WASDUR | q = 0 | S = 0 | Stoichiometry = C26H28IrN2P | MND = 6
Ir        3.46207583928197    2.10215695770095    5.60437134355744
P         2.16038804476995    0.21777583905598    5.31135792898471
C         2.20148396948249    3.08118641308866    6.99232812639480
H         1.52273220275875    2.37433938135765    7.47081074220388
N         4.92600075771750    0.66409116608040    4.97831670790181
C         1.86761909709632    3.51835663600820    5.69946021548976
H         0.96122366131630    3.10319202635362    5.26277417985247
N         3.22442507230442   -0.98616242598613    4.99212381754069
C         2.22066546375032    4.89653705422021    5.17557456621898
H         2.22775896030262    5.60473863753531    6.00500935971552
H         1.44550196082744    5.22380503611681    4.48073896131674
C         3.57697280315305    4.90755500332140    4.44473393270375
H         3.40793304477961    4.73395427844492    3.38008630197973
H         4.04756447515019    5.89217472251756    4.53881357067261
C         4.53246314160328    3.84555787632567    4.94324084184893
H         5.26403172467929    3.55213988194132    4.19196889970891
C         4.84325804025926    3.64330396022598    6.28354218070248
H         5.78963101574024    3.16875199534680    6.52731977305431
C         4.27958509356665    4.49690906444730    7.39786693820305
H         4.09108143990219    5.50242101373318    7.01992331671601
H         5.02360397712036    4.58509638982624    8.19168294991698
C         2.99082703634570    3.89639335523250    7.99122613936335
H         3.25537865780735    3.23928046432702    8.82209311834950
H         2.35694464262157    4.69160618808454    8.39781046583014
C         4.48844948133242   -0.62732295460050    4.81861390873261
C         5.42024320300815   -1.64039753598615    4.46692920902761
H         5.03317241597465   -2.63951118782096    4.34898401919538
C         6.73672337654183   -1.34665201728457    4.28737488254931
H         7.44552034191648   -2.11763349065938    4.01986457924682
C         7.17618295945733   -0.02077249611520    4.44903977695938
C         6.23010594190716    0.91482368772038    4.78753458478005
H         6.54446295826490    1.94182258771690    4.91614522129713
C         8.61726932141650    0.34322462859973    4.26141640309789
H         8.95550856179407    0.05978162706417    3.26488084651466
H         9.23995589636152   -0.18168859572283    4.98607706773640
H         8.76775784548967    1.41324288172828    4.38791559351715
C         1.09886114135405    0.24374450352036    3.81987275307540
C         0.16292464907129   -0.75262602846975    3.57511179607028
H         0.00693040818323   -1.52903809165398    4.31059801372399
C        -0.55861305508081   -0.74704151422940    2.39487007232154
H        -1.28964712262390   -1.52052495073302    2.20700724423487
C        -0.34484305282947    0.24547236607837    1.45181062042201
H        -0.91212340543435    0.24753390334561    0.53223136273370
C         0.60041296607989    1.23138151082891    1.68502504888461
H         0.77266503966651    2.00073525561192    0.94564612455852
C         1.32131870606120    1.22792801268946    2.86481552494800
H         2.06688322973541    1.98921065771182    3.06386177894777
C         1.03034945148072   -0.50809329786201    6.53847369769286
C        -0.18635810401659    0.11008866363820    6.80844516386997
H        -0.46709386406018    0.99538888407293    6.25267513864312
C        -1.03301011771676   -0.41505387349549    7.76599619903458
H        -1.98124347115413    0.06171243210898    7.97004139177301
C        -0.66592141905318   -1.55500104418526    8.46518773492940
H        -1.32956316707737   -1.96490735398051    9.21282403910571
C         0.54859135712807   -2.16801486882937    8.20495286223509
H         0.83207369571697   -3.05670138213755    8.75064701825898
C         1.39818518621516   -1.64294650803373    7.24729712712645
H         2.34701852256078   -2.10732532591804    7.02125881651613

