31
CSD_code = WASGAB | q = 0 | S = 0 | Stoichiometry = C12H12Cl4N2Zn | MND = 4
Zn       -1.17843580523261    0.30986452595147    2.85773694707059
Cl        0.38461296151520    1.09116881897141    1.55695097452029
Cl       -5.71490291141082    3.36148974538118   -1.12597406816659
N        -2.37060988660499   -0.86452066149554    1.32025521190522
C        -3.19259007057556    0.13051912632433    0.70662783493076
C        -4.47570152384761    0.36614355044977    1.18362683330706
C        -5.25240072461074    1.36336255440600    0.62407237576469
C        -4.74317646936155    2.12165011191627   -0.41836619247602
C        -3.46281657200520    1.89612927362810   -0.89947089478038
C        -2.68911590888974    0.89860222595805   -0.33629466687416
H        -1.71233779347056   -1.24852425105299    0.64763451215696
H        -4.85970373731222   -0.21467908719469    2.00871903470829
H        -2.94000253084932   -1.60580591904627    1.71841635174328
H        -6.24567471806384    1.55364353344903    0.99768998996588
H        -3.07277218621062    2.49720091315756   -1.70515625264453
H        -1.68398690752173    0.72943542731460   -0.69270590145443
Cl       -2.74146400173005    1.09130484728239    4.15847515993322
Cl        3.35799164286961    3.36141718263217    6.84165769417164
N         0.01360569292100   -0.86448899902661    4.39534260225309
C         0.83561686483386    0.13050060467519    5.00901865374551
C         2.11873406159217    0.36611488569381    4.53201575789859
C         2.89540780509257    1.36337685174852    5.09151425731554
C         2.38616595261395    2.12175494792877    6.13387057900849
C         1.10583226053751    1.89618716489602    6.61502683562553
C         0.33215581414665    0.89861689426921    6.05191802736849
H        -0.64476811784138   -1.24839515557123    5.06791462663912
H         2.50267471278041   -0.21464984891352    3.70683985182119
H         0.58296611184724   -1.60584311488667    3.99726470508881
H         3.88871159463743    1.55360402635832    4.71789731635326
H         0.71586590376242    2.49715044964867    7.42083915427041
H        -0.67298151361646    0.72946937514077    6.40834268882975

