55
CSD_code = WASGUS | q = 1 | S = 0 | Stoichiometry = C27H21N6Pt(1+) | MND = 4
Pt       -6.83394117258930    1.35054137602589    5.17701771291522
N        -8.17776238458187    2.62231490064440    5.92931678189325
N        -8.29350453557773    0.91258404554082    4.01615026388969
N        -5.89144653248635   -0.00013915897540    4.04226167729159
N        -5.31319325680898    1.72948780359346    6.48577621265129
N        -5.38382045457044    0.87759557732290    7.45725566432634
N        -6.38104710431181    0.08925223043050    7.28791941538275
C        -8.01595192909707    3.54048809274489    6.88172280481141
C        -9.05022296064959    4.34468281600328    7.32432037291566
C       -10.31057836635288    4.19178565274215    6.76011621042084
C       -10.48655378645120    3.24287112988969    5.76907528400792
C        -9.40761186332083    2.46401791336499    5.36022426373072
C        -9.49372153976513    1.42887647739608    4.32595711044065
C       -10.63045886314231    0.92699900053950    3.69994146878738
C       -10.48375852955921   -0.11615055798222    2.79341930857866
C        -9.23532442723857   -0.67766196153360    2.55171657175852
C        -8.12807131407221   -0.14195135794751    3.20157284398921
C        -6.73796798979129   -0.60670217831435    3.16160814735365
C        -6.27956937489730   -1.60578393772491    2.30749905366438
C        -4.94958018326805   -1.98453135648582    2.34721173068880
C        -4.09931051023811   -1.35072283875912    3.24437799979742
C        -4.61126769428766   -0.36792346064634    4.07203498236359
C        -4.33123314117902    2.69862551389381    6.44615393528793
C        -3.35971020308403    2.84529199019051    7.43879574013417
C        -2.41525376510205    3.84567409464578    7.32119476702820
C        -2.42459595545584    4.70191725266239    6.23018019889675
C        -3.38820787879589    4.55761176386605    5.24265486012990
C        -4.33739479183367    3.56227196291066    5.34710213789560
C        -6.64721039192086   -0.90966691290478    8.19389154167814
C        -7.74674286879462   -1.73113640671058    7.93210689235285
C        -8.07242798061003   -2.75295102903560    8.80005232011821
C        -7.30939733295861   -2.96918584038156    9.93733697153901
C        -6.21639391567950   -2.15712150903651   10.20218428958834
C        -5.87983577693871   -1.13294187892597    9.34211144342032
H        -7.02179391699040    3.63156824484545    7.30229138773939
H        -8.87064763565108    5.07422331882379    8.09650045032788
H       -11.13780024394501    4.80248752440433    7.08491409708199
H       -11.45105452275649    3.10728959181434    5.30776365319272
H       -11.60794048599137    1.32315731081132    3.91822358221043
H       -11.35220829948083   -0.51254106242708    2.29218614543129
H        -9.13822813711776   -1.51791589416745    1.88493336860668
H        -6.96050878015684   -2.07485384880930    1.61631410142076
H        -4.58157853092090   -2.75635163440827    1.69017977375596
H        -3.05628789729667   -1.61391573142898    3.30413761081585
H        -3.97704191751733    0.14353543654322    4.78601414903313
H        -3.36381164541060    2.17341699812178    8.28242171255140
H        -1.66404570779851    3.95997699468669    8.08754301706336
H        -1.68238579664839    5.48019854052327    6.14870734126134
H        -3.39592826407303    5.22283203774248    4.39273808026536
H        -5.10473568997501    3.42527170125081    4.58533777154450
H        -8.33159641993378   -1.54828641549616    7.04057472989228
H        -8.92346999359961   -3.38449088131190    8.59248248209919
H        -7.56579703751825   -3.76829171532183   10.61543002227215
H        -5.62296558204597   -2.32622447868991   11.08816985324627
H        -5.03270471974212   -0.49350524656044    9.53617569047427

