22
CSD_code = WASHAZ | q = 0 | S = 0 | Stoichiometry = C8H11AuClP | MND = 2
Au        5.55529038547269    5.54502426152330    2.02915849911367
Cl        5.44124035723389    7.79732113656859    1.88322692599510
P         5.66693090450308    3.30751077964168    2.17275725439241
C         5.74677239863930    2.65418644924798    3.87593197484673
C         7.14626288339591    2.56540601242442    1.40079036971064
C         4.28840754912350    2.39925843100708    1.41804891852539
C         4.19770054322290    1.01138067121903    1.47297465202404
C         3.12665542883648    0.36789173424528    0.88250095786459
C         2.14513256258819    1.10058560062683    0.23284197577052
C         2.23329001736660    2.48122452354919    0.17359005755130
C         3.30176475799493    3.13023773241903    0.76648715885139
H         4.83377742201044    2.93255475787053    4.40198912814248
H         5.86100487742886    1.56988634105081    3.88384004526520
H         6.59746975997245    3.11641073606152    4.37761538404303
H         7.15863454413583    1.48213116699075    1.52625583537446
H         7.14740574236842    2.81251348313018    0.33936776536508
H         8.03061651723939    3.00172556648394    1.86581218482569
H         4.96115991224937    0.43356193998918    1.97510417251481
H         3.05551283962506   -0.70867450006030    0.92918093525566
H         1.31123404247762    0.59216622685489   -0.22724296194167
H         1.47056658669785    3.05318738885477   -0.33286802804409
H         3.38136996741773    4.20940956030053    0.73123679455288

