27
CSD_code = WASLUY | q = 1 | S = 0 | Stoichiometry = C15H8MnO3(1+) | MND = 9
Mn        3.18525752364160    2.05095387064565    8.02668986582940
C        -0.76945289708003    1.19212875206423    7.34145261341548
H        -1.62426073310121    0.56365876305555    7.17791881150563
C         0.01012616380541    1.74655597804023    6.38249566348966
H        -0.10153111542528    1.63346602148806    5.32037621260616
C         2.00397935930265    3.47202856554030    6.58617092647975
H         2.12237080151835    3.72072349431468    5.53726773821388
C         2.73775074442878    4.19816562697581    7.57130202466812
H         3.40547011441958    4.98578975732250    7.23473519170094
C         2.53626084705635    4.03216771060659    8.94872575182011
H         3.04171058038891    4.69086019946327    9.64788424018986
C         1.04066387768530    2.96411523386287   10.75418209938184
H         1.51601039565040    3.49046879774660   11.56817106037346
C        -0.04013788306193    2.15034519241221   10.98354207710943
H        -0.40165622082910    2.04083149081848   11.99465380726876
C        -0.73771909104047    1.47142826013846    9.95420972895313
H        -1.61721372497488    0.89618169686361   10.19872707365808
C        -0.29493288431678    1.59753970180886    8.66132648324327
C         0.85118649569323    2.40167078735809    8.42938904112306
C         1.05104419344119    2.54829545686139    7.01236740222492
C         1.52243680011311    3.13961753066684    9.42533966928608
C         2.84547906838866    0.30181339499040    7.71281803172291
O         2.53469504356484   -0.77114682133361    7.51039027833432
C         4.65818909716707    2.04275898431930    6.97035949426014
O         5.55674002821371    2.08728355654710    6.27785265609568
C         4.17286327349531    1.68043299007653    9.49729852434240
O         4.75117014185547    1.49606500734606   10.45715353270415

