29
CSD_code = WASMEJ | q = 1 | S = 0 | Stoichiometry = C15H10MnO3(1+) | MND = 9
Mn        1.77736470512858    8.44098824307335    2.08064300782480
C         2.29314051478728    6.89880367700808    0.26085562384895
C         1.00300974578310    6.73241432307851    0.76153325967359
H         0.14690534037762    6.68052305030890    0.09755799400566
C         0.83698110697518    6.44973478606291    2.15227525075968
H        -0.15442542903406    6.18860030884789    2.51111339446745
C         1.91884741706312    6.38547417127558    3.03424183944916
H         1.75896824808069    6.07400214242633    4.06145263038084
C         3.26243049777362    6.51208325690003    2.54602678605832
C         4.46632305576606    6.31070728177298    3.25565107856579
H         4.43348035751971    6.08658419298754    4.31103731307597
C         5.66945167281903    6.38150266092755    2.59208185748720
H         6.57917250273060    6.21287448055609    3.14759531571137
C         5.77344320308378    6.64063266089243    1.21015204974221
H         6.74551205617385    6.65766162165201    0.74354328972114
C         4.62994035029637    6.84343527664735    0.48240605683551
C         3.39216317389986    6.79022092457036    1.15668974584820
C         4.37116670363573    7.09547444527995   -0.97375773276024
H         4.87949345858379    6.36164607458471   -1.59929093421246
H         4.75042584146282    8.07904297258723   -1.25988933715194
C         2.83072425256420    7.01861914162674   -1.13364386373570
H         2.53958397921203    6.13314696028245   -1.70536224778975
H         2.42687745576217    7.88307162520082   -1.66246811151994
C         2.41955720768257    9.21623883936277    3.58434420714513
O         2.85448845192709    9.63209500389258    4.54732300578658
C         2.45290684985053    9.73243578442565    1.01439538960232
O         2.92129110597046   10.47178788740702    0.28814485444330
C         0.18625306999864    9.29122519233089    2.24259280239800
O        -0.83947689587461    9.76967301403136    2.33785547433906

