33
CSD_code = WASMAF | q = 1 | S = 0 | Stoichiometry = C19H10MnO3(1+) | MND = 9
Mn        2.28380439863430    6.45097863910313    5.47315082238491
C         3.76149344595026    6.93939014486131    7.05024303635704
H         3.72692376117030    7.74825975138967    7.77404370467958
C         4.40705319815115    7.13207740382535    5.82022860635384
H         4.87889885529768    8.08483469164757    5.60119987850030
C         4.65015563150270    6.03389376615006    4.94556719680283
C         5.42096547773569    6.16303094956661    3.75467131206954
H         5.79730562569472    7.14063764391942    3.49128658269210
C         5.68074848311082    5.08431740872010    2.97111656596545
H         6.26846958130408    5.19674293225516    2.07278561467439
C         5.21324652967583    3.78277993267255    3.31091917148740
C         5.48999483214047    2.66094769242185    2.52241050914089
H         6.06027042791962    2.78476247222701    1.61440561991173
C         5.04491219793306    1.40626647377192    2.89921322515214
H         5.26632745923028    0.55260198165487    2.27772655724689
C         4.32795963588447    1.23146708083770    4.07142128037028
H         3.99804148231291    0.24608191860368    4.36335273742549
C         4.02645802859386    2.32121499780864    4.89230091286470
C         3.31725596769998    2.17450582766483    6.12025583185582
H         3.00912066902411    1.18289544738494    6.41478066924891
C         3.04674775508877    3.23743846962597    6.91957210155851
H         2.52155168314637    3.10786384259702    7.85424252527617
C         3.44970876734285    4.55363623886957    6.54907836837731
C         3.23371100645381    5.67960261888418    7.38684467542862
H         2.80326571700305    5.52065652738269    8.37026943518718
C         4.46203253008067    3.61327574728902    4.50173573754451
C         4.16171895402734    4.73559898095441    5.31311519660160
C         1.01805462640296    7.48978553248226    6.24425212874534
O         0.26225428404645    8.15130332959335    6.77620502057018
C         2.16443523510607    7.33779812853530    3.90257283910065
O         2.16569607667617    7.89475795626652    2.91161458759578
C         1.07719781417026    5.20301211239260    4.97647065231667
O         0.39311986148870    4.34198335864107    4.68404689651337

