59
CSD_code = WATFUU | q = 0 | S = 0 | Stoichiometry = C24H30ClN3Pd | MND = 5
Pd        0.30117304738786    3.00107945687252    3.98619265121076
Cl       -0.67030771592254    3.89685585532643    2.10456430278920
N        -1.60026933520585    0.88267592556704    2.91982733847450
N        -1.64939612979330   -0.30452278011473    2.35163557539478
N        -0.43380182993529   -0.78014478088218    2.42555007671332
C        -0.36982713772245    1.20467622204549    3.38569261220427
C         0.39856136838429    0.09025823427286    3.04544764508343
C         1.82183711894160   -0.15303690378144    3.30752009319849
C         2.78456426046934    0.65617164700810    2.68649201903522
C         4.12438424331209    0.42438441437384    2.95530903019841
C         4.53211989526546   -0.57436507693808    3.82907071492711
C         3.56323031465293   -1.34358638653043    4.45396769558073
C         2.21170450988485   -1.14357045301927    4.21207600741121
C         2.38548651608260    1.75496142449056    1.75040239148661
C         5.98619958360818   -0.78918932783699    4.11797094931507
C         1.20398531917500   -1.97784891661540    4.94894676146259
C        -0.11659764256710   -2.05246261097244    1.84673294775802
C        -2.75736460737158    1.70100898442740    2.93529653419467
C        -3.21488008357214    2.25595106853211    4.13226218195518
C        -4.36189211553432    3.03641384555192    4.10053670389654
C        -5.04590204058467    3.28219398061237    2.92129931151392
C        -4.55234208338397    2.73792880408469    1.74424430637453
C        -3.41397018170012    1.95122512277133    1.72581486537864
C        -2.48879786695010    2.07681924648216    5.43198707247479
C        -6.26343024373372    4.15411107104478    2.91145189789446
C        -2.85737770883041    1.45990627687955    0.42666479820719
C         1.50030774081781    2.53359722765043    5.64377346773496
C         1.10734475401538    3.88914850893989    5.70923664736714
C         1.37142466242566    4.74051011649577    4.63653155902448
H         4.87059690591468    1.04161557328147    2.47529869907410
H         3.86258683444985   -2.11133589455245    5.15351863128196
H         1.67322210160981    1.40334023683987    1.00411770404044
H         3.25540407419445    2.16130462837565    1.24050617778362
H         1.89148527054040    2.57817971744860    2.30756813885619
H         6.59430306802467   -0.54261732474022    3.25070974387074
H         6.17782017453973   -1.82069209520949    4.40427768372790
H         6.29930257105777   -0.14668927766649    4.94165040474728
H         1.56300735802919   -2.19116899005835    5.95333066678669
H         1.04739894643852   -2.93263829702389    4.44561745829177
H         0.24816919681623   -1.46498774802596    5.02833403913286
H         0.96569357376519   -2.16368240613054    1.81441008049468
H        -0.52746918762503   -2.10152911036647    0.83854549374427
H        -0.55348733544023   -2.85812380797598    2.43885625510298
H        -4.72031884793577    3.47335084357222    5.02173958436721
H        -5.05650560499399    2.94903680645237    0.81252544056569
H        -3.15392103362114    2.27792323774804    6.26879984645799
H        -1.65295799296683    2.80319538848893    5.47211079140298
H        -2.08073858610333    1.07109607294736    5.53823659171614
H        -6.91756142903949    3.89928965890336    2.08114261032713
H        -5.96539718293865    5.19673608396297    2.79918605954962
H        -6.81714296088326    4.06056594259615    3.84300055871223
H        -2.83030851901340    0.37282915066203    0.39209053038447
H        -1.84338760534253    1.84452339509728    0.31536406280940
H        -3.45698425868550    1.82523621595817   -0.40202793080370
H         2.46620762193608    2.29315802144284    5.19759409154704
H         1.22520331964745    1.87996797655115    6.46486731822302
H         0.41125907530207    4.20745151849184    6.48793144128536
H         2.29614817494723    4.60940254061459    4.06437327756681
H         1.00090566576219    5.76051174557538    4.66922639069231

