60
CSD_code = WATLUA | q = 0 | S = 0 | Stoichiometry = C24H32PRhSSi | MND = 6
Rh        1.40179534841066    0.67385939313419    1.59651386067103
S         3.45958878010373    1.90648042840136    1.11980107080592
P         1.97422804170267    3.20622809552008    0.88285330457011
Si        0.69742403718280    1.63589368149196   -1.42458527406785
C         0.58750863955976    2.21689259654516    0.38705204284238
H        -0.35779122807639    2.70158361989108    0.64512849061997
C         2.47710753365197    4.58524993945199   -0.20278282099608
C         3.79284726339069    4.71513387967558   -0.62017653234571
H         4.52773828473892    3.99976218200974   -0.27489969312692
C         4.14483523345980    5.75009554303273   -1.46881742932966
H         5.16925420276917    5.85491760261427   -1.79494637178839
C         3.18298871424212    6.64773514979281   -1.90186454312143
H         3.45805219905605    7.45290616770408   -2.56718243272489
C         1.86578780801963    6.51559520568466   -1.48776325755740
H         1.11842538793756    7.21724984892214   -1.82936889483348
C         1.51020280102707    5.48331669540277   -0.64131565453294
H         0.48676822390018    5.36312446178707   -0.30902858720150
C         1.60154669795190    4.06639222204464    2.45711840500141
C         1.77200656135259    5.43497697172589    2.62908876380639
H         2.10442123261161    6.05280397951841    1.80722046938514
C         1.51609277423853    6.01141336560229    3.86122128174382
H         1.64770165555858    7.07620136282736    3.98844546196799
C         1.09957535580590    5.23237283531107    4.92744669696019
H         0.90269301796265    5.68926277348488    5.88609112211813
C         0.94857879850661    3.86432979821076    4.76454000468356
H         0.63788252483347    3.25056543207088    5.59777916230400
C         1.20528332074031    3.28615928315629    3.53705732682786
H         1.11451363280962    2.20766878849939    3.39533407483434
C         1.31617827357459    2.91019506806446   -2.71082595216024
H         1.23655405713238    2.48969052823576   -3.70861376187338
H         2.35579708218370    3.17753518498403   -2.54900653414956
H         0.73448795782347    3.82666234528500   -2.69510615216898
C         1.86242831416088    0.12379621395971   -1.56528651102987
H         2.90206543260483    0.43637577980172   -1.51077939160068
H         1.72084867478906   -0.39503613144622   -2.50903669691717
H         1.69234210827778   -0.59067136110140   -0.75912259603022
C        -1.07303272216914    1.17726539131725   -1.98306813748349
H        -1.54103188636717    0.43391670635892   -1.34832269292750
H        -1.04321074976468    0.77658648078516   -2.98954317903852
H        -1.71899713538657    2.04871299625155   -1.99807059843078
C        -0.23857255916862   -0.68265434172175    1.45548577950265
H        -0.77980535596483   -0.48066542708984    0.53405330422296
C        -0.44711586179019    0.19079615968565    2.52336263332115
H        -1.16691484034136    0.99811849322564    2.38210817065050
C        -0.26442974343167   -0.20300241433887    3.97384186513610
H        -1.07119569028711   -0.88790239330221    4.25900156214837
H        -0.37711020980904    0.69150749385122    4.59080918145800
C         1.10309659164690   -0.85544229667238    4.26749549279397
H         1.41300626949930   -0.58370401858292    5.27860545975024
H         1.01246941462059   -1.94269559630781    4.23999795192728
C         2.18163601600683   -0.43470738455290    3.29105600300765
H         2.98055182867661    0.17448561687072    3.71565868085099
C         2.45361389100279   -1.12849950309070    2.12537727340870
H         3.45622795038120   -1.04559947500998    1.70397296240224
C         1.68458479395419   -2.34570552081627    1.66493070843968
H         1.93471055279805   -3.19385518430693    2.31220915860494
H         2.02138194631531   -2.60270110411277    0.65844887594320
C         0.15683073904408   -2.13268739442024    1.64786698234125
H        -0.27041950059345   -2.72672098785285    0.83764105594391
H        -0.28313248296892   -2.49506522764845    2.57899905507021

