66
CSD_code = WATLEK | q = 0 | S = 0 | Stoichiometry = C34H25ClN2O2PRh | MND = 6
Rh        3.52868810235970    3.75616951491447   14.59775474877336
Cl        2.66957564046112    2.06367764388158   13.06390246028101
P         5.23528562391483    4.55035738105086   13.37573582127140
N         2.16343398898756    2.96725762064522   15.90374855514223
N         2.05114667586989    5.32790498794287   13.66927057787225
O         3.48270797794056    5.48366507165394   16.81475347708656
O         5.94041201836321    2.37263829676536   15.20785380659884
C         4.21819839056940    5.03593777445307   15.95634213393015
C         5.65963089942523    5.40229964976081   15.88230396572622
C         6.33923886752432    5.18152805555890   14.67919737015003
C         7.69362529150467    5.45275246123267   14.58747965017166
H         8.22976899463356    5.26031411258275   13.67036433742090
C         8.36708379434796    5.94456226791511   15.69516374475333
H         9.42719778114461    6.14262041015483   15.63032739059457
C         7.69458600105424    6.17821760620574   16.88507230236327
H         8.23121029177698    6.56212408154988   17.74041190424392
C         6.34103074923344    5.91033481435116   16.98258257396632
H         5.80120162957455    6.07519377440475   17.90401556872276
C         4.87743635794284    6.03815907368790   12.38479664156822
C         4.43955056568349    5.86969495378890   11.07340940489049
H         4.41098373290091    4.87391502896745   10.65118522155757
C         4.04722905306484    6.96311811888497   10.32515336570571
H         3.71383513991175    6.82772853556808    9.30646404346253
C         4.07621838143083    8.23151961045269   10.88302089425212
H         3.76928801096312    9.08634099435683   10.29842718299960
C         4.49666262701020    8.40273095348790   12.19166997283427
H         4.51575876164643    9.39091146406103   12.62829767004674
C         4.89024324115561    7.31087631795484   12.94463336661217
H         5.21212721384057    7.44338517889556   13.96889121736093
C         6.27982267174927    3.60234622275079   12.23479384641056
C         6.10371686111667    2.22968978425294   12.11525394771290
H         5.32027338055077    1.74296684659369   12.67687532323456
C         6.91269898959785    1.50386190463805   11.25832711318921
H         6.77277609155038    0.43724447153915   11.16350941344218
C         7.89450380772843    2.14287065719784   10.52019591914509
H         8.52796240025074    1.57474517165976    9.85434617901888
C         8.05722903571074    3.51609584963405   10.62139564560457
H         8.81224250229591    4.01665717930823   10.03177097695531
C         7.24953478107614    4.24883444777182   11.47040905171499
H         7.35384278538940    5.32480996510810   11.52620091786419
C         4.74845666915698    2.44381169308490   15.39656400465456
C         3.98873472471072    1.50873492709960   16.26944419600480
C         2.63293448925434    1.84082341678606   16.49485965729880
C         0.90920704307503    3.30245422094063   16.09206910166052
H         0.56126483238330    4.20654053785798   15.60879493676300
C         0.03072601050953    2.54085688191522   16.87691933680169
H        -0.99026792028965    2.87026764735417   16.99104122435939
C         0.47571051829590    1.39267289528901   17.47705409095821
H        -0.18062223492002    0.78071286384748   18.07838646564430
C         1.81906163363349    1.00517750937143   17.29442919836900
C         2.39430430580030   -0.16287904244034   17.83940930933690
H         1.77592169857412   -0.80927685519398   18.44514732500400
C         3.70589088681449   -0.47665502446002   17.59680616997079
H         4.13007914493295   -1.37809803651080   18.01361274146254
C         4.51353430585370    0.35830393421936   16.81200612230977
H         5.54641523479898    0.10781375334677   16.62185904146073
C         1.63592010933163    5.11526594170035   12.42386074036891
H         1.81313450431302    4.12187523383007   12.02835794175762
C         0.99776421387617    6.08672402008017   11.67041468223733
H         0.67914126480057    5.86401817527244   10.66416932977591
C         0.78715742493820    7.33546479499076   12.22917311069910
H         0.30400176215733    8.12071583011127   11.66629364114313
C         1.20474230217261    7.55215437807600   13.53275157911817
H         1.05232063711811    8.50454596405915   14.01629370925640
C         1.82800691193684    6.52110705120221   14.21402110732060
H         2.15380041552018    6.65460903258940   15.23785353161032

