46
CSD_code = WATMUB | q = 1 | S = 0 | Stoichiometry = C17H24ClIrN3(1+) | MND = 8
Ir        4.52177470521322    2.45181761595004    3.23203735677245
Cl        5.25930942613281    0.28940178958121    3.80267383990946
N         3.82574407780905    1.54246385903001    1.53570230287196
N         2.70298130781611    1.70239184016356    3.81784392129389
N         2.26206673047099    1.85139989904989    5.08168752330656
H         1.69305897060849    1.09565474656972    5.45053865306293
H         2.98048253736886    2.16767198082391    5.71895352334689
C         5.16943026121391    3.90704471851835    4.77162075034189
C         6.34802895700382    3.38718599168602    4.15474273027239
C         6.28666400126039    3.69340387456275    2.75393255796040
C         5.11997232458443    4.50853719478966    2.52945528031096
C         4.42526800043989    4.63153241035089    3.76721726824790
C         4.91490105412523    3.95214429933864    6.24515312315981
H         3.87970378634552    4.20385598569478    6.46391110091707
H         5.54453141445487    4.71992009949271    6.69662646376709
H         5.16308324995130    3.00366516919515    6.71849476392994
C         7.50037238331089    2.73745827759362    4.83304124654003
H         7.26918236255214    2.49363722706955    5.86523707482839
H         8.35249071998972    3.41808430432411    4.81598196331572
H         7.79319219472568    1.82393039016874    4.31982831139403
C         7.41837094339645    3.47828340670348    1.80237459591246
H         7.80520246289069    2.46419161111926    1.87941475545619
H         8.23152200713060    4.16213471931401    2.04933059937317
H         7.12297219671360    3.67029901143600    0.77427539904128
C         4.78569340184719    5.22297909844427    1.26472511916842
H         5.12043273723831    4.67002928294263    0.39068237313919
H         5.28455393317012    6.19286877322622    1.25920156411259
H         3.71629302110424    5.39554543010753    1.17576248558106
C         3.24368719586570    5.50204100779095    4.02758615141128
H         2.64956988926162    5.64309933664730    3.12874476474619
H         3.58760174339644    6.48201411736145    4.36127109228491
H         2.60442346958648    5.08889011357226    4.80405713100904
C         2.64764070269791    0.88405799538771    1.65475730578411
C         2.15059693251477    0.11730334365998    0.59821270585976
H         1.22227360894942   -0.41792540553027    0.70453532364348
C         2.86661270228125    0.03028255035489   -0.57869674813339
H         2.49773503874281   -0.56239635775973   -1.40060615388842
C         4.07557422605603    0.70780535104259   -0.68060704086054
H         4.66955832765544    0.65804602083240   -1.57798767816434
C         4.51481668072360    1.44472831050703    0.40164419419973
H         5.46059471613307    1.96458517976468    0.36420692460538
C         2.02115844242135    1.00392408299889    2.95535857551540
C         0.72824896837449    0.34953454033378    3.31852270884036
H         0.90657166131453   -0.51454293386747    3.96135697809113
H         0.19393779775669    0.00982066252538    2.43965507579423
H         0.09191872739392    1.05419907714156    3.85294204192937

