65
CSD_code = WATNAI | q = 1 | S = 0 | Stoichiometry = C26H32ClIrN3O2(1+) | MND = 8
Ir        0.22944371523548    0.57165885366954    3.98753483594695
Cl       -1.72643692925956    0.73755424045502    2.67649543708213
O         1.43347779860569    5.70060525683235   -1.77255226929336
O         4.03358963829723    6.85803081458569    2.02602930600407
N        -1.05951667114111    0.52620183448314    5.59835793448637
N        -0.13330312049186    2.52432980483827    4.33129250943174
N         0.52760021537567    3.42042348992251    3.62587035512895
C         2.17917483210635   -0.33467183525826    4.60010189374766
C         1.36144592563957   -1.38371158421382    4.03330976150594
C         1.09253305580701   -1.04792122665363    2.68198977504064
C         1.72116053574566    0.22719934050064    2.40443222369750
C         2.45230951888765    0.61794227938131    3.56835621202392
C         2.84975314773604   -0.39072708076967    5.93155213862453
C         1.05866706854195   -2.69060487427134    4.68965663298892
C         0.41728577370449   -1.88985353872450    1.65669039730560
C         1.82568517757850    0.82424167288709    1.04001510885141
C         3.41123412212768    1.75493802814193    3.66596581549267
C        -1.55792722926402    1.73288611629517    5.96662044945195
C        -2.57246969302261    1.83680200247493    6.92106583321000
C        -3.07262006420724    0.69091147690284    7.50459791096488
C        -2.55313173943832   -0.53955413091627    7.11715445368543
C        -1.55670151768796   -0.57272666745098    6.16110556474186
C        -0.99350857105648    2.85421988282402    5.25430356158789
C        -1.39732120768977    4.26694712530737    5.50760145780005
C         0.35924035079881    3.64009102956265    2.37796864178496
C         1.18714622824085    4.55839655122335    1.64318419012293
C         0.94809204444207    4.72764651566981    0.28370468733291
C         1.73982218879821    5.60343376662774   -0.46472926906075
C         2.76395477953627    6.29598961450325    0.16698067860361
C         3.00766548350277    6.12815357953818    1.53676394577276
C         2.22251872148798    5.26029043161512    2.27834824745108
C         2.17526614954086    6.58459353726438   -2.58684482568755
C         4.34284624426276    6.76808701188780    3.39830318412830
H         3.11904673711117    0.60298397986648    6.27985737394344
H         3.76435241336759   -0.98017903766228    5.85212407533210
H         2.21348703329418   -0.85899410607907    6.67890514991459
H         1.05026029097531   -2.60045526331012    5.77332659865816
H         1.83330746630177   -3.41116933231045    4.42263139840236
H         0.10379725841794   -3.09241103789358    4.35707712709839
H         0.00218593786694   -2.79315955738659    2.09334985112435
H         1.13959719519563   -2.17056284581856    0.88984870590098
H        -0.38616116116738   -1.33859510797720    1.17054358059794
H         0.87806346780743    0.74209440602468    0.51313158402417
H         2.57888606841610    0.28498566421610    0.46407163297023
H         2.11357638453732    1.87173464416259    1.08145474078799
H         3.17880261726123    2.53154028376075    2.94210963750560
H         4.41761223270911    1.38720005094416    3.46043555840638
H         3.41051865631944    2.19139707365917    4.66201228345502
H        -2.96526699721935    2.80565101099135    7.18043238148096
H        -3.85831287407034    0.74802407669594    8.24100215468439
H        -2.92010575912346   -1.45819550199918    7.54393295200500
H        -1.14729871051073   -1.51488645972854    5.82838594716350
H        -1.41311096739775    4.47677300756530    6.57451685177614
H        -2.39368799728231    4.45139901575712    5.10646578505716
H        -0.69932691998974    4.94259985998260    5.01865663519396
H        -0.42566500252192    3.12034618948079    1.82686408236529
H         0.15458338082071    4.19447375937028   -0.21381298231694
H         3.40138730280089    6.98438292653204   -0.36209735533271
H         2.37318146342178    5.10905711612807    3.33380235247991
H         2.08520161144943    7.61710627557921   -2.23871807154940
H         1.74058741060675    6.49913150989408   -3.58070857497340
H         3.23042971226832    6.30013571490832   -2.62623924072821
H         3.50082649164265    7.08682571188566    4.01967880895320
H         5.18138212776629    7.44386719196725    3.55407251173002
H         4.64058715618134    5.75199546155067    3.67515968397454

