113
CSD_code = WATPAI | q = 0 | S = 0 | Stoichiometry = C42H62B2Cl2N2P2W | MND = 6
W         1.46978298644965    2.31433557803714    5.73055240399852
Cl        0.50709712455455    3.40312203935819    3.82120999870893
Cl        0.13136200680146    3.92289355917435    6.90563753712961
P         3.11248027974979    4.16130688651747    5.32409791604764
P        -0.69991107970778    1.08564213026744    5.97086631856159
N         2.11510635302774    1.71491084753480    7.31929927242897
N         2.32205935150936    1.15693248070369    4.61961876735010
B         2.54463674581580    1.19042420789437    8.50710321391815
B         3.04223809256939    0.33497596618509    3.79738871659784
C         2.44396337410500    5.83634789408359    5.65977727591233
C         3.65684467443425    4.35186277891090    3.58392875943745
C         4.73580794009518    4.20730646326507    6.18028194419164
C        -0.83834828129431   -0.70443994480573    5.58672978532273
C        -1.42898850281794    1.11505980464994    7.65279243429847
C        -2.07220183501852    1.80579718744613    4.98923152921770
C         1.66510409612164   -0.01591240414041    9.07946025718354
C         0.96712483333158    0.13170347075739   10.28412240941540
C         0.13882806288693   -0.88169612413801   10.74478895412400
C        -0.02567927880318   -2.05982431844190   10.03195121648415
C         0.65844186724842   -2.19992141519245    8.83416735838525
C         1.49063301081071   -1.19904221173452    8.34935581917286
C         1.08674152924589    1.40399308572194   11.06969636469282
C        -0.94069272764478   -3.13806411617037   10.53119056966698
C         2.22264946531704   -1.42456618453031    7.05661790821407
C         3.81277231688357    1.77095485679801    9.28684728097956
C         4.86416167367906    0.93558599430493    9.69362650978907
C         5.97635187178899    1.46010537474731   10.33373438121163
C         6.09005767545304    2.81554901671190   10.60555019609735
C         5.04572107829073    3.63855600857590   10.22449285705140
C         3.92245243471206    3.13794158306508    9.57624789256852
C         4.82780636511981   -0.54118451151019    9.43391164802735
C         7.30399000565437    3.35581371177845   11.30030265095449
C         2.82015177676261    4.10612795161697    9.25469883094416
C         4.50012595668452    0.86525810779989    3.40978052175431
C         5.46768980841019    1.11627306577521    4.39153064704833
C         6.69877486856906    1.65151315758302    4.03468596363185
C         7.00217652599838    1.96248653744726    2.71806641275149
C         6.03629347998637    1.72658224061379    1.75123030722704
C         4.80042861989637    1.18891375918459    2.08115575507058
C         5.20895996295235    0.78408246247851    5.83394037459861
C         8.34236841671418    2.52209460314116    2.34464533884654
C         3.77017307502979    0.98871171278719    1.00938387976127
C         2.45269059144264   -1.03695695544967    3.22838483270947
C         1.21265250588930   -1.07772814142932    2.57634039561168
C         0.69464106101270   -2.28053901676446    2.10995620756487
C         1.37510916029096   -3.47402943922197    2.27055794286209
C         2.60844983217866   -3.43377037768323    2.90391359836441
C         3.14938033143631   -2.24639643945960    3.37228315462979
C         0.41989736422397    0.16842582537192    2.30321687460498
C         0.81729437473178   -4.77155718996306    1.76716230345243
C         4.48604758317890   -2.29734826937992    4.05079043676067
H         1.50823991096687    5.96076930002077    5.11228575825972
H         3.15799111114293    6.59545357777634    5.34123441584309
H         2.23493771260648    5.94689386470466    6.72303214138766
H         2.79800331957809    4.56939684063078    2.95075676557087
H         4.11561271866331    3.42237140764571    3.24755810401320
H         4.38095895922227    5.16315238983711    3.51223746262389
H         4.63264930918156    3.90117618811923    7.21931097733879
H         5.15355911324293    5.21222107719794    6.13191795990060
H         5.40697244502229    3.51490060292434    5.67764302274917
H        -0.25884220275616   -0.95437570596928    4.70039112135723
H        -1.88280505685214   -0.97227750413734    5.43153749993628
H        -0.44506289335362   -1.26664885693764    6.43042313095699
H        -1.62797915414668    2.14353959761141    7.95022713951744
H        -0.72345388727836    0.67532361070903    8.35740418377779
H        -2.35739728814592    0.54437006705914    7.66093702578929
H        -1.86392742083218    1.69924271778625    3.92540320281861
H        -2.15041549447890    2.86998951697419    5.21770801578789
H        -3.01035038615914    1.30884649557456    5.23514247538026
H        -0.39004984939550   -0.75105794594218   11.67935960994720
H         0.54447096481064   -3.11394719935128    8.26544066891017
H         2.12633047469130    1.59139614449031   11.33202200376501
H         0.49506980557602    1.35703159459496   11.98137748716640
H         0.73976130992861    2.24337637307386   10.46886037895461
H        -0.92195520159980   -3.18774787736923   11.61776716852970
H        -0.65436931079634   -4.10720286026045   10.12905768631325
H        -1.96704917247901   -2.93303278941277   10.22285492428278
H         2.16534430412890   -0.53990239026758    6.41564815432059
H         1.82084581082298   -2.28307001810102    6.52182075490399
H         3.27339782004118   -1.62075259177257    7.26321556909830
H         6.77673691449076    0.79664964822833   10.63350056659916
H         5.09949827371420    4.69837357780272   10.43738425384495
H         3.86340135198801   -0.95672426791459    9.71419105635497
H         5.60872963138390   -1.04958403813417    9.99562423619869
H         4.98711540019664   -0.73493417996374    8.37462368031333
H         7.25228408596014    4.43835720694924   11.38933069236739
H         8.20712658561034    3.09339267436284   10.75028611011598
H         7.38897293533436    2.93021029239035   12.29989657301735
H         2.24420187552673    3.76531752801184    8.39550995132246
H         3.22089011103162    5.09983538622686    9.05847461404867
H         2.14012292846348    4.18934518225595   10.10330731042588
H         7.44080141576843    1.82873049731478    4.80274280073685
H         6.25101917638027    1.96942487151081    0.71918020076643
H         4.21775543888558    1.12940500179547    6.14233151840998
H         5.96244945425321    1.22889348393157    6.48116098198683
H         5.24506599943571   -0.29534682470490    5.97079570792086
H         8.25214485341358    3.22998620483718    1.52317717893938
H         9.00551154065950    1.71840899992824    2.02231736651787
H         8.80574851168478    3.02128262450283    3.19287056030444
H         3.46565267938482   -0.05539309075351    0.96666426684261
H         4.15640454306853    1.28408616290524    0.03623848047279
H         2.88529187485374    1.58334560986791    1.23155233715532
H        -0.26343011105251   -2.27867669875785    1.60644894379565
H         3.16251955287814   -4.35437704083553    3.03103708212695
H         0.63611580571240    0.93517955980189    3.04573590231580
H        -0.64830222772410   -0.04483635300367    2.29496050417566
H         0.68130758666233    0.56701159447873    1.32223975045459
H        -0.19662119303434   -4.64213291444791    1.39602987098231
H         0.80734012797151   -5.51755813102074    2.56081054809404
H         1.43441976389889   -5.15808700336664    0.95610473664718
H         5.13579257690220   -1.50964049687891    3.67854578208229
H         4.96537156823859   -3.25973829978279    3.88369637833581
H         4.36247439123019   -2.15865568531827    5.12345132184195

