92
CSD_code = WATQUG | q = 0 | S = 0 | Stoichiometry = C40H47CuIN2P | MND = 2
I         8.64859562123656   11.26909708909168   12.93975098660442
Cu        7.85033425918530    8.95879725510586   12.54105347343558
P         7.82395807102978    6.80777216008007   11.96600609051440
N         4.57250788373545    6.39498311757894   12.61975018249039
N         4.38608325646618    4.69255817102548   11.24724979234159
C         5.28735422849153    5.58629062620090   11.77925066689061
C         3.24042661674757    6.01631401097096   12.58597209054952
H         2.50160737491297    6.54549386537323   13.15129021199268
C         3.12852031201221    4.96573523650733   11.75655655358200
H         2.27679058285376    4.38305505245111   11.47411066630926
C         6.61633422957757    5.61171090667650   11.46091380389937
H         6.95164756458404    4.87642791931811   10.73886332005119
C         5.10218061452837    7.40205243535127   13.46279379969255
C         4.92521391467612    8.74091137584031   13.10253836886526
C         5.41804594827954    9.71855859113576   13.95861850883957
H         5.30510390128756   10.76155841820811   13.70761644898742
C         6.06019394482872    9.36985671992637   15.13212520118039
H         6.44786207601010   10.14350106676102   15.77741530554614
C         6.21538149971864    8.03946961073484   15.47846526335307
H         6.71222932684817    7.79248030732318   16.40243219859827
C         5.73701313707404    7.02870904061042   14.65626125647488
C         4.23869659008410    9.12681599571574   11.81252626707062
H         3.88767821795557    8.21936012302625   11.30958553314672
C         5.21997760727323    9.83036896072418   10.87262180233555
H         4.73834200010075   10.05327212622672    9.92267964333453
H         5.57396275475152   10.76374292024100   11.30237389061707
H         6.08360407800629    9.19153043226271   10.67698993795820
C         3.02185144040385   10.01255599850399   12.08756085514351
H         2.49023399819289   10.21308229551064   11.15998693830504
H         2.33855717228948    9.52171415182156   12.77810253570934
H         3.32229198183466   10.96300320123666   12.52001825482903
C         5.83057624054544    5.56951120797562   15.04639865539541
H         6.02724379243615    4.98414960568256   14.14108723040450
C         6.95365158300317    5.27029331347925   16.03767365486149
H         7.89409150272998    5.70163286422535   15.70622766919095
H         6.71661018047870    5.65435526092252   17.02713032006991
H         7.08649797889388    4.19348718599256   16.12004246366596
C         4.49460687953459    5.11359873642352   15.64631967873129
H         3.67953556984486    5.21700821000021   14.93416373513928
H         4.55866981263400    4.06932691900171   15.94480766205318
H         4.25882306523529    5.70964254758545   16.52580525159977
C         4.72755269511679    3.55542219801145   10.47219779670234
C         4.87459178855549    3.69098870643076    9.08880963136576
C         5.19179753703219    2.56001298525065    8.34999696195172
H         5.29924193741457    2.63020725426081    7.27959947317621
C         5.37335783290109    1.33825810853726    8.97100175340994
H         5.62373348312773    0.46866124212261    8.38176227936669
C         5.23584931108088    1.22469612361912   10.34056673427873
H         5.38471285322948    0.26536040703184   10.81161948219401
C         4.90731676314533    2.32872506769356   11.11648567028246
C         4.64208852347037    5.02704909904126    8.42242563451446
H         4.79581617231402    5.81594676818296    9.16566663587022
C         5.60490516638493    5.28310287489983    7.26308860297470
H         5.52661877475266    6.32024506038308    6.94399827924705
H         6.63194510819954    5.09176513501106    7.56646155780782
H         5.37026786893047    4.65445790305282    6.40796720031221
C         3.18980858860837    5.10304187831946    7.94043128521747
H         3.00229440371104    6.06184483485267    7.46249311993705
H         2.98822612730739    4.31165623831492    7.22170839028541
H         2.50078079472644    4.99307885176589    8.77508707581014
C         4.75863172195431    2.19071373127714   12.61427120634347
H         4.44058973997298    3.14849251791125   13.03569679468941
C         6.09996835685238    1.82499221660728   13.25352024132735
H         5.98922947968873    1.74363436337149   14.33264758851800
H         6.46716555038529    0.87508152590740   12.87314428745283
H         6.84258188246570    2.59117165031467   13.04271908574145
C         3.68693178736825    1.15568279433342   12.96281916619673
H         3.52820836652111    1.13277525353281   14.03866787503997
H         2.74406811693498    1.40610952280649   12.48098688727025
H         3.98230052986474    0.16066186222072   12.64085026056422
C         8.96455126332235    5.91650546098506   13.09354021213561
C         9.66969481616102    6.65228256502822   14.03983611516043
H         9.52073234443042    7.72478595086928   14.09675121093892
C        10.55566696271505    6.02348675092471   14.89650481634505
H        11.10490933965084    6.60256487684808   15.62429157913170
C        10.72928849070159    4.65117736256886   14.82155513642587
H        11.41530519404457    4.15696501720421   15.49343949675234
C        10.02412605128245    3.91189630075078   13.88474665048079
H        10.16315796457447    2.84189450148055   13.82523537992635
C         9.14755688847240    4.54137174815748   13.02102023062556
H         8.60615559483736    3.97118613489418   12.27885775928526
C         8.86088472828646    6.85581716587686   10.46011838532128
C        10.24993470208970    6.81871520439457   10.50455926087328
H        10.75791176360926    6.68897216613411   11.45029994908062
C        10.98385570896382    6.94756553211667    9.33919847219892
H        12.06267199784646    6.91294201997491    9.38103925001927
C        10.34254985326588    7.12682919062148    8.12501531200104
H        10.91981888456621    7.22959780889008    7.21823386347181
C         8.95908754239976    7.18468491288513    8.07690305392852
H         8.45524825427040    7.33685910517577    7.13317959061299
C         8.22312534158629    7.05569348026697    9.23867595348876
H         7.14239824060554    7.10998553611517    9.20927119418922

