92
CSD_code = WATRAN | q = 0 | S = 0 | Stoichiometry = C40H47AuIN2P | MND = 2
Au        4.06971044992297   14.31680372869331    3.80370528869560
I         2.68874353249298   14.74139739623487    1.68613048192776
P         5.14762331643878   14.21258098799170    5.79305714145217
N         5.31656230301651   10.76600229782448    5.56901186094805
N         5.60760742588467   10.63503584137809    7.73943219268944
C         5.42325314872095   11.52088874724432    6.70227349570792
C         5.42694541477767    9.42681323155834    5.91338834571572
H         5.36126227693797    8.66305893851174    5.16647200429286
C         5.61086291873296    9.34685785984797    7.24105805725782
H         5.73900342932110    8.50129746755773    7.88357951293266
C         5.44242728436054   12.87498441520844    6.90373241023360
H         5.54509819871572   13.19142929476381    7.93821736136691
C         5.00919520549424   11.15358790470196    4.23714833596138
C         6.03368093540780   11.61062853032458    3.40308581812168
C         5.74225768841218   11.81525795371379    2.06103313567901
H         6.51266825924504   12.15582857318646    1.38845125454935
C         4.47113948198693   11.58341608911585    1.57155840997259
H         4.25641938161671   11.75272404869161    0.52791326030526
C         3.46040622223919   11.16737892314888    2.41772626984746
H         2.46875850572816   11.03157062257105    2.01925253065192
C         3.70963092454723   10.93654268517104    3.76308933824935
C         7.42295307847531   11.82937198114368    3.95572036036920
H         7.32776485118998   12.11638132418347    5.00862306161705
C         8.17328190985867   12.95206873772444    3.24100090305092
H         9.06548800644043   13.21639148310916    3.80487081470494
H         8.48280999141797   12.64976607019439    2.24382868251066
H         7.54982407684806   13.84068893284803    3.16110670476247
C         8.22059416075101   10.52366557822806    3.87980698609798
H         9.22629321755419   10.67591373172244    4.26581949996405
H         7.74203166995601    9.73959373040839    4.46322753764015
H         8.29306653169618   10.18766011838300    2.84747631546909
C         2.60433894014455   10.52158232832995    4.70869016791354
H         3.03875794005337    9.94001304659596    5.52976616422018
C         1.96226817444963   11.77895597038749    5.30389688233263
H         1.17463973057091   11.50787932553370    6.00394928569353
H         2.70482018557774   12.37693539425521    5.83423546358184
H         1.52763418896658   12.38739287991465    4.51341382025574
C         1.54281219218528    9.64821918023571    4.04165097332996
H         0.88181243815286    9.23254246529187    4.79943713301656
H         0.93556972112801   10.22560675638264    3.35000523600542
H         2.00589814830920    8.82616564620241    3.49997030797476
C         5.71048848439696   10.98941708433605    9.10794230645963
C         6.97507201592111   11.05407254463080    9.69873338010314
C         7.05362069334047   11.36825968857139   11.04871045189549
H         8.01632628626784   11.41086828861378   11.53368578326820
C         5.91151847860908   11.63309706301991   11.77986623850936
H         5.98930977224151   11.87982444804800   12.82825795787226
C         4.67044636618317   11.58693060678820   11.17426021086084
H         3.78788936603170   11.80261559747302   11.75622895160454
C         4.54500996468711   11.26053007213177    9.83068802192313
C         8.22726875061546   10.78409154437763    8.89742621523828
H         7.96212857064373   10.72551117353357    7.83674409114874
C         9.24700505975237   11.91316423144082    9.06238268779628
H         8.78031543067298   12.88010580916629    8.88640661513849
H         9.67200283584127   11.91676504296128   10.06260566115408
H        10.05976273749863   11.78541933981403    8.35055423751289
C         8.83791392504556    9.44244593061339    9.30954877696782
H         8.13018125520002    8.63235984410751    9.14760997227660
H         9.73171270281924    9.24109371063383    8.72353118754745
H         9.10978459386940    9.45316771536192   10.36237071969087
C         3.18049369510297   11.19651111960673    9.18565600538078
H         3.29302023301928   10.91819809241858    8.13393008374342
C         2.49399244670828   12.56316150355149    9.23439496689858
H         1.53226877477238   12.51586550716537    8.72896920017947
H         2.32654156168316   12.88135451124389   10.26012440278596
H         3.10242396924598   13.31609303016189    8.73772597660542
C         2.31843583473211   10.12722855917876    9.86077657249348
H         1.36211454490061   10.04315147515569    9.34965877073163
H         2.81474555005422    9.15936059620661    9.82622500739188
H         2.12875135972426   10.37827964780397   10.90107036648671
C         4.25383812241812   15.33007778878755    6.92490882475951
C         2.88272024308793   15.49978409260460    6.77398733974705
H         2.37398029002079   15.02145616958543    5.94628073360537
C         2.17353722934619   16.28009929773329    7.66849920002258
H         1.10889517974996   16.41013023536974    7.54229191127818
C         2.83101220572302   16.89660142713137    8.71994002322055
H         2.27934050408113   17.51020605479464    9.41662811552924
C         4.19802696120916   16.73062297457377    8.87582437689511
H         4.71200986430219   17.21469070837566    9.69376344670146
C         4.90887489157154   15.94853791854370    7.98523671009786
H         5.97733913063780   15.82259366966849    8.10226010022523
C         6.73864697088667   15.10613238242138    5.68734924593294
C         6.76101261799966   16.29852551129721    4.97156694197592
H         5.84495360110060   16.66117974433569    4.51938076644673
C         7.93835831232342   17.00835526601677    4.84037641202595
H         7.95129660723710   17.93465434718494    4.28511116153929
C         9.10381699475556   16.52639833962440    5.41672612522175
H        10.02578425717147   17.07869583983777    5.31009256317869
C         9.08754066960920   15.33703989942434    6.12551022813929
H         9.99634302514243   14.96146913135513    6.57445441880034
C         7.90822661153336   14.62667237280143    6.26013647335289
H         7.88618499292209   13.69485283187786    6.80987725454440

