67
CSD_code = WATSAN | q = 0 | S = 0 | Stoichiometry = C19H41ClCrP4Si | MND = 6
C         6.49951416862790   -1.43342764124789   14.56570496993575
H         6.25023784207735   -0.70043122268274   13.79049937000429
H         7.18908157090278   -2.17517605258299   14.14801109542159
C         5.23270571638678   -2.07096104115090   15.11194981472652
H         5.48463970681591   -2.81503708837713   15.87634926230618
H         4.64012763602151   -2.55471389148587   14.32781855473457
C         8.28649108942914   -1.81907221092855   16.74076061237892
H         8.87484991425122   -2.37409434327780   16.00883305413144
H         7.60253750366662   -2.48533528167067   17.26581541861711
H         8.94499805823058   -1.36307385999026   17.48068197090043
C         8.62323415164879    0.36144733509623   14.98436461718045
H         9.37666708638140    0.74357799351762   15.67339968237513
H         8.17007338743577    1.19558295254508   14.44944554085803
H         9.08958490902762   -0.32738607514136   14.27912603774521
C         3.26857499061812   -0.10541625483665   14.54811905575492
H         2.77489297576121   -0.91882746684097   14.01541666549093
H         3.93777709700552    0.43574802345150   13.88085226206331
H         2.52518450048209    0.59509652376720   14.92533102700647
C         2.99147728380564   -1.79811866970718   16.79414488785249
H         2.16412349896908   -1.16720187707827   17.12197409818963
H         3.45933858032406   -2.25031375758924   17.66901614836362
H         2.62081758479967   -2.57374219964294   16.12253394182698
C         4.83625737437446    3.38030890384845   18.84214381667146
H         5.02334176994168    4.05800479200929   18.00186235950887
H         4.15794133285451    3.86778592141881   19.55093922072275
C         6.14928074403905    2.97447562683705   19.49095003498604
H         5.95969625814972    2.30981775184451   20.34164673159847
H         6.72521187464625    3.83930489433848   19.83795025983751
C         3.16578886342694    1.20824498654990   19.59372619316088
H         2.56575510566752    1.98386698144332   20.07156287622085
H         3.89883413361613    0.80702393926574   20.29307924303678
H         2.52565375899672    0.38666717787708   19.27079629715254
C         2.66441120186297    2.63972324179782   17.21567010647767
H         1.92906646683726    1.87578211368611   16.96225972099893
H         3.06081663213983    3.07475222873928   16.29864014673831
H         2.19304974912975    3.41248312346420   17.82395969940983
C         8.02042064353223    3.33959088679948   17.39292233422890
H         8.52597582217280    3.98692710899659   18.11018931071174
H         7.30744113041178    3.91121750111480   16.80073845124761
H         8.74881637434868    2.89866237480971   16.71420692236847
C         8.44365347313762    1.34803956561450   19.35108401730452
H         9.26234587873973    0.97286601943498   18.73545259518137
H         8.02843913956514    0.52194466409441   19.92892395096708
H         8.81167532680929    2.12747601932762   20.01975711808223
C         5.63791620219885    1.90534532307894   15.64549052117761
C         5.64936167623427    2.72150885145620   14.72653742439854
C         5.67600651679937    3.62024853198958   13.72082155423876
C         5.71239605204223    4.43610160228983   12.81168570313336
C         6.29416361615363    7.37008221024115   12.13590129670019
H         5.58156854213397    7.72334504694402   12.87548862588804
H         6.35080347501253    8.11806448006781   11.34969754828935
H         7.26721751636118    7.32326754341546   12.61614469242299
C         7.06767039070563    5.10518932785572   10.14764958141416
H         8.05525534936371    5.01007364644242   10.58952967841569
H         7.14091259314158    5.81419936061010    9.32749005017532
H         6.80431328371354    4.13971818132455    9.72572855336828
C         4.06934802009186    5.80712981146416   10.61839384192542
H         3.74788208214206    4.85180434334126   10.21411816521359
H         4.08002784266970    6.52371851154966    9.80162486401349
H         3.31602258152236    6.13082990277873   11.33055075441726
Si        5.78366106685813    5.66344909248798   11.44668129167622
P         7.30977845446355   -0.48990687892116   15.93830674018654
P         4.24424667455358   -0.75177134394453   15.95810125080379
P         4.05205321525870    1.86236705269619   18.12711278763487
P         7.12294173382350    1.99492432441038   18.25544024270292
Cl        5.74705478239244   -0.87082121362562   18.80601402894191
Cr        5.68299602537159    0.62094257456088   17.10718130845805

