38
CSD_code = WATVUL | q = 0 | S = 0 | Stoichiometry = C11H15Cl2FeN7O2 | MND = 7
C        -0.42507187978071   20.24676956078166    1.72500522180722
C        -0.10702290091630   19.55707902201325    2.88128737016767
C        -0.11509459536608   18.15444382997418    2.84035362916372
C         0.19323268990879   17.28951492676931    3.97670651621347
C         0.53816255044363   17.83846075793793    5.33502216585937
C         0.26076046076584   13.78192996211676    4.33029297334881
N        -0.42524695858626   17.50918367490121    1.72368946536276
N         0.13461202672104   16.02575975351178    3.74061515489262
N         0.35491174189567   15.10301448395146    4.69317149073713
N         0.53423473828810   12.87339668426963    5.31428478895096
Fe       -0.42526079266768   14.84699183447511    1.72899715238921
Cl        1.61495180685247   15.03350321917921    1.09460227849551
O        -0.00297289722660   13.44670288590290    3.18235629512441
H        -0.42490823162380   21.32758992994773    1.72545616781357
H         0.13650987590781   20.10399881053035    3.77690150808657
H         1.49208845134020   17.43065441810398    5.67438911503985
H         0.62313373343719   18.91773191121963    5.32127944909127
H        -0.23518286110084   17.56740999941703    6.05614009547474
H         0.60664764342134   15.37566866993798    5.64054953404906
H         0.32356218371073   11.91800327612241    5.07411523562848
H         0.41632932920061   13.12759827363481    6.27997957381480
C        -0.74326698361407   19.55813433439361    0.56795645874141
C        -0.73526182201029   18.15564013126009    0.60783509593860
C        -1.04357271181948   17.29143513402433   -0.52949547035859
C        -1.38858539973438   17.84101983581723   -1.88747418593195
C        -1.10979198536777   13.78378532255996   -0.87912003741249
N        -0.98458719951117   16.02814928932985   -0.29345201711858
N        -1.20484544690707   15.10428997293495   -1.24442150454037
N        -1.38304108142459   12.87381486470048   -1.86171379161458
O        -0.84559350719840   13.45032976532479    0.26906853755370
H        -0.98661572609581   20.10581331323656   -0.32723885260137
H        -2.34224603721489   17.43286235379749   -2.22713556366158
H        -1.47391058555386   18.92025678025420   -1.87327571314071
H        -0.61501577312386   17.57037044467664   -2.60847424801913
H        -1.45689167614045   15.37505343311582   -2.19230052597017
H        -1.17230132861632   11.91871282775129   -1.62045211814354
H        -1.26647554770812   13.12683134870697   -2.82794207892101
Cl       -2.46697330258468   15.03409496341767    2.35814083368941

