49
CSD_code = WATXEW | q = 1 | S = 0 | Stoichiometry = C19H24ClN4Ru(1+) | MND = 9
Ru        8.05075033006987    7.38521130796178   10.05340056534832
Cl        8.97443285774674    7.37438015872968    7.89781419384958
C         6.35385851740030    7.58266786752458    9.01363101507394
N         5.57505163981660    8.52533952515111    8.44270188535273
C         5.69903023705261    9.94908808928460    8.55472864469412
H         5.12434992239736   10.40857754447322    7.75360460803649
H         6.75106722943694   10.21979599036799    8.46380744529487
H         5.31397683986714   10.29255115907806    9.51529684851678
N         4.64843148970746    8.01419216288426    7.66469285148253
N         4.79788250836216    6.72141351448182    7.68612922318312
C         3.94067561396395    5.89359406007245    6.88946825401368
H         3.23834947104364    6.54526174208483    6.37291480408334
H         3.39213701062377    5.19419005016514    7.52091528788805
H         4.52849122117417    5.34165389357845    6.15533795431561
C         5.83052361039482    6.38435386534194    8.49334200235478
C         6.52557441072201    5.17271453465879    8.83114139945930
C         6.23451848678064    3.87559702693935    8.41889493302128
H         5.37921158870245    3.68474224955255    7.79268270313700
C         7.06391455377355    2.84195162152767    8.81166525380083
H         6.86420259370462    1.82962298566115    8.49986490536536
C         8.16763564075495    3.13772382564322    9.60209704976125
H         8.84939975911697    2.36447838735176    9.91534448077511
C         8.39351781756505    4.44757007420467    9.98052114563589
H         9.26002998603018    4.69690606327421   10.57830516498888
N         7.59494557967021    5.45323486197612    9.62698223288801
C         7.69466085211288    7.91905112718767   12.26722826284426
C         6.52819021504591    7.65657776878333   13.19059169743845
H         6.70767928523097    6.70429540860058   13.70213981096036
C         5.22502330212312    7.52812044751508   12.39721214778299
H         4.96274900706369    8.47197703189479   11.92492338950891
H         4.41266719320199    7.24254508684526   13.05972342882580
H         5.33069368055365    6.76486905748553   11.62352313002558
C         6.42274535421422    8.75678537266662   14.25020248718361
H         7.35941797145008    8.85650727959846   14.79354002257248
H         5.63977194874611    8.50767575132645   14.96091505507614
H         6.18019681813658    9.71612987813649   13.80024359490003
C         7.78304595645604    9.10492641561160   11.49586403882436
H         7.00620316225107    9.85655219309046   11.58224562403949
C         8.92575087269898    9.38899942316207   10.72181982482219
H         9.01207435469852   10.34830086346893   10.22185922645384
C        10.04184789965011    8.51039180842689   10.72050819424566
C        11.28286384092208    8.86816700664469    9.97371865927273
H        11.50198336166150    9.92926181960476   10.07491941580766
H        11.14071191751223    8.65768827736850    8.91068847561080
H        12.13381100839678    8.28773665742208   10.32177342803150
C         9.93579868865656    7.30767733905835   11.43440401827464
H        10.79112772993359    6.64397691744530   11.48844024276709
C         8.76710468894313    7.00573461103839   12.17051945978947
H         8.74622197445388    6.10963989564412   12.78481151261822

