88
CSD_code = WAVBUS | q = 1 | S = 0 | Stoichiometry = C44H35N4O4Zn(1+) | MND = 5
Zn        2.51742505316376    2.21430786322107    7.30598438215209
O         1.29280844834954    1.61626593326363    5.89929574258355
O         0.84167950174224    1.07099291395199    7.95227649218357
O        -1.36718495232882   -0.25012351190308    8.48471854317139
O        -1.57776313938761    1.97963337065487    8.74653629887912
N         1.45177662911479    3.80627272244483    8.18635366945917
N         3.83691471591776    2.75124964976785    8.98991724114109
N         3.39200913833413    0.37128056616887    7.96855877828292
N         4.10366385199871    3.13730460569415    6.34233912226779
C         0.17573252633164    4.05662124308224    7.91861444236659
C        -0.61882608162483    4.84085229308750    8.73698903596971
C        -0.06133868280345    5.37616162879157    9.88644784005357
C         1.27492044336413    5.12325939433759   10.15925206296206
C         1.99909839392613    4.33176931227547    9.28149456704639
C         3.47182997747583    4.07526504669699    9.47111426883393
C         3.56538577978747    1.70989740008586    9.96790846979394
C         3.45331660050508    0.36723101984809    9.29742917846229
C         3.37089575325995   -0.79963802069681   10.04059654457374
C         3.17166008581478   -1.99801331918191    9.37372940352724
C         3.09101771046180   -1.99018813162904    7.99342001267549
C         3.22031695553847   -0.78092202914833    7.31483381097083
C         3.19191827355768   -0.71898898709596    5.84812203597705
C         4.19209693836434   -0.03363853712794    5.16393546304558
C         4.18846823781709    0.00112680072888    3.78239905709612
C         3.17116350471759   -0.61694884814033    3.07414350797176
C         2.16542200682411   -1.28667059621981    3.75082268825371
C         2.18226229937517   -1.35407478761880    5.13109721288051
C         5.19466169615034    2.69477496856009    8.46846608802847
C         5.25264242135686    3.07815557020290    7.00983175494418
C         6.47295885304055    3.31892158619784    6.39519586034943
C         6.49169496496052    3.60400604841974    5.03797684175227
C         5.29261124977619    3.67698417074428    4.35409231777369
C         4.10106863729824    3.45678853185188    5.04330859657795
C         2.80098443144751    3.60331534514626    4.38100623726571
C         1.82270302612680    4.41195044191928    4.95451096685356
C         0.58930280906827    4.54776087274973    4.34531372491871
C         0.31618852489593    3.87001020627121    3.16894354015296
C         1.29270253893892    3.08040163459563    2.58478763168005
C         2.53507603504914    2.95773007068214    3.17742887169963
C         0.52827091322673    1.06858662836602    6.73930098569859
C        -0.71312808570430    0.42227621034101    6.25715400030152
C        -0.97683785249065    0.40783917697770    4.88873339360715
C        -2.10300387181407   -0.22101330274931    4.39735267511102
C        -2.98030699287452   -0.84919988688255    5.26961887076856
C        -2.73995272190464   -0.83723277685674    6.63170659308546
C        -1.61309165661079   -0.19892056177438    7.12989894795502
C        -1.15520814117302    0.91894263483332    9.13694286974253
C        -0.45646872078424    0.72043972478036   10.42853446545429
C        -0.01629230062377   -0.53156818306549   10.84471480048955
C         0.66531507762225   -0.65773338500016   12.04161389990964
C         0.92432964749101    0.45979607957834   12.81954150445857
C         0.49205734636601    1.71026775115433   12.40429364285208
C        -0.20170941064179    1.83997797938148   11.21599522326166
H        -0.21966517386407    3.61505600306129    7.01676486105586
H        -1.65315123017422    5.00252533833189    8.48536291661357
H        -0.65157494131212    5.97866102495160   10.55998978230622
H         1.74787302111494    5.52992139669887   11.03983064869226
H         4.00787509649474    4.81816122451591    8.87077461227815
H         3.75454961968722    4.21917659240995   10.52274836614239
H         2.59667955990110    1.91768274066154   10.43447492444368
H         4.32856173417048    1.67959233362237   10.76033463494299
H         3.43735511664561   -0.76113278141782   11.11594133214136
H         3.08154665940345   -2.92195753494703    9.92393648257483
H         2.94537090238791   -2.90179000465195    7.43622981801796
H         4.99569294413176    0.43007511897745    5.71874485787232
H         4.98857418322680    0.50427676754379    3.25854926378851
H         3.16458150509831   -0.58276884522805    1.99512845090961
H         1.36921068848172   -1.76592883347919    3.20187582948618
H         1.39608720072324   -1.87402258099778    5.65893301111366
H         5.87814825428570    3.33279136240787    9.04566403494904
H         5.56113551106238    1.66738780654699    8.55058969521877
H         7.38707647273869    3.27113235098482    6.96574365945369
H         7.42777246673401    3.77750926144159    4.52991247420381
H         5.26235870957027    3.92332523949978    3.30496646699379
H         2.04888489969889    4.96296743313668    5.85584064386337
H        -0.16184307159884    5.18503029070705    4.78821047526216
H        -0.65396691541577    3.96295389885972    2.70478005105338
H         1.08536206843533    2.55854873824263    1.66265395243999
H         3.28978432461000    2.33245664772372    2.72703954848093
H        -0.26964992380630    0.89658386283423    4.23565142039573
H        -2.30023025890449   -0.22582184625207    3.33656794836321
H        -3.86015119760058   -1.34507639563957    4.88917310674441
H        -3.41680768944074   -1.31479557771138    7.32272599913584
H        -0.21755773877008   -1.39669106180166   10.23318169297164
H         0.99036283171573   -1.63222098892222   12.37477104182613
H         1.45459117763216    0.35594683808521   13.75472014263155
H         0.68518033119144    2.57946694213354   13.01601829453724
H        -0.56355552603404    2.79993470594750   10.87997538184541

