61
CSD_code = WAVBIE | q = 0 | S = 0 | Stoichiometry = C16H29As2B9Cl2P2Pd | MND = 7
Pd       14.63830155132061    1.96403455885855    0.69660272485414
As       16.06837347560269    0.42090219313396    2.29918732687855
As       13.81194495893583    0.81484705245029    3.18362616757414
B        12.87858639285420    0.55454195978015    1.20962000888339
B        13.76436577388102    0.06759402306510   -0.22359857966330
B        15.40660795701489   -0.03916488736134    0.14341228656540
B        14.67725492676092   -1.18615170007907    2.86691737162136
B        12.97563864409413   -0.92084926817655    2.35841562141659
B        12.85488849343508   -1.15129899229749    0.61009298552367
B        14.46034775445644   -1.54451555060483   -0.01620417292614
B        15.63955583322985   -1.40070502238561    1.31430413545485
B        14.01665968947135   -2.13013625887589    1.57516267825458
Cl       13.21923617386108    3.89040996675882    0.63141995277170
P        16.39257553657351    3.50313542703316    0.50634778802025
C        18.13876433712907    3.03917858729026    0.88691143136819
C        16.24744294856134    4.94493566319923    1.63211011330403
C        16.54030497698916    4.29246399930549   -1.12656941731393
C        15.62627935782979    5.27909664527255   -1.48992815684487
C        15.67427096512788    5.84537828643217   -2.74996439968641
C        16.62542382423911    5.42678572430711   -3.66640598625088
C        17.52244402113260    4.43029010488304   -3.31971134850107
C        17.47903302019143    3.86144198575088   -2.05932330098966
Cl       16.71962899010742    0.42668729082575   -1.06134471923672
P        13.21515143664228    0.69068770665657   -1.92466247904073
C        13.65552649902072   -0.43922896759452   -3.29839077632234
C        13.95806231122670    2.27619871316946   -2.47181009982785
C        11.42768602839499    0.96781415442488   -2.05476252717455
C        10.58542167937481    0.03615535024445   -2.65061974526153
C         9.21863673457995    0.24837749840552   -2.67265818974837
C         8.68192773235821    1.38397463595859   -2.08926805563592
C         9.51560162498015    2.30616606057067   -1.47825172572169
C        10.88308330938011    2.10101258360630   -1.45606393089120
H        11.85969964067414    1.15756066866922    1.14783438357576
H        15.00537511603875   -1.69098494226563    3.88752746694720
H        16.61682454358407   -2.07121120022654    1.30639236446035
H        14.67575967342720   -2.25824964033486   -0.93143176037514
H        11.85387659393954   -1.59167114648791    0.15860470473126
H        12.05653834798368   -1.24598104994046    3.03276639712726
H        13.85943912548649   -3.28294485547006    1.76339090040253
H        18.20907539567765    2.82932012292691    1.95716360269376
H        18.42702696112492    2.14023980103649    0.34641129328610
H        18.81238226687432    3.85412394084384    0.62848514925642
H        16.36962638699596    4.59113827768127    2.65627471258133
H        17.00942352555834    5.68799861269759    1.40163401946603
H        15.25848343526590    5.38486098392681    1.53807220753536
H        14.86464872952387    5.58306577433603   -0.78775072312566
H        14.96472239606276    6.61385506199886   -3.01976565537317
H        16.66349014738966    5.87083352954986   -4.65041778845358
H        18.25877014976571    4.09274255317555   -4.03503219598209
H        18.17486850569214    3.07605293092076   -1.80577389096728
H        13.28937903414065   -1.44169789807962   -3.09334515785307
H        13.25000140072870   -0.08423418181119   -4.24324827594888
H        14.74069192664773   -0.48147284010009   -3.36774443236836
H        15.03957939895522    2.15805241805131   -2.55394658699653
H        13.55496715243419    2.57791728748490   -3.43721664420155
H        13.75257092984237    3.05780454997799   -1.73503401919615
H        10.99298456861669   -0.85769430565248   -3.09886554968832
H         8.57075354738008   -0.47733457436972   -3.14201787274179
H         7.61419039773545    1.54492244601564   -2.10498302666470
H         9.10093835477053    3.18677209596658   -1.01160918118273
H        11.52368538892120    2.81775605547764   -0.96146742240087

