55
CSD_code = WAVDAZ | q = 0 | S = 0 | Stoichiometry = C22H24ClN3O3PRh | MND = 4
Rh       -2.29205532120199   -2.41353052163522    3.22939106863079
Cl       -2.87267586042920   -4.55329441023802    3.62684717479624
P        -1.92822463451477   -0.28469242276011    2.71092502413204
O        -6.23081725973136   -1.19744810046410    4.13139861731065
O        -3.24020602480018    0.65298446342902    2.45577821767993
N        -4.12883827672289   -1.88784083767312    3.89594640016337
N        -1.17446989631679    0.76901279154581    3.79187549941373
N        -1.05208869414261   -0.00062415128851    1.26921236573657
C        -5.12936793111154   -1.28814524797459    3.37520061067410
C        -5.93747064770004   -1.81919179311768    5.38508420508060
H        -6.64374822556595   -2.63876558108757    5.53603754942318
H        -6.07435087119576   -1.07575941811093    6.17344657862426
C        -4.48101527404450   -2.30702013362965    5.24653888977444
H        -4.41800923462683   -3.40239104618969    5.27889371963065
C        -3.45292339885498   -1.74409868793274    6.24818392048962
H        -2.46656222404688   -2.04943266039182    5.84556621846382
C        -3.63689865542716   -2.40272579895740    7.61730900622966
H        -4.60331115436229   -2.11071292566613    8.03606112785898
H        -3.64693755001105   -3.48583766387969    7.48150215389746
C        -2.52671005949698   -2.04242572753522    8.59744747697210
H        -2.64684077474978   -2.60543981704803    9.51964139820499
H        -2.54471459865466   -0.98413014535178    8.84207565182047
H        -1.55541352351870   -2.28418665343896    8.17300651731497
C        -3.49248490662932   -0.21844129245414    6.32526074372802
H        -3.56668957315176    0.21754959956845    5.32919772349128
H        -2.58120252056855    0.16030806696821    6.77917007833319
H        -4.33657771341835    0.12638134872813    6.91967944797600
C        -1.28631916727033    2.12980056805635    3.94211180562549
H        -1.92276843956944    2.70532155458455    3.29952916749357
C        -0.50577471699942    2.51380491017416    4.98853623562701
H        -0.37954733939615    3.51385532080122    5.35408285937683
C         0.11046876175354    1.34950330138465    5.50997018028328
H         0.78718331770386    1.30983233050798    6.34033617050675
C        -0.32059338420726    0.29899794903999    4.76163361451276
H        -0.10638310455115   -0.75422316763204    4.82174006104308
C        -1.13167733998910   -0.88224578728996    0.21779999769664
H        -1.65704382283706   -1.81647564398128    0.33678155733530
C        -0.47375092802245   -0.35236129903016   -0.84869980611165
H        -0.35552603418954   -0.80171722232169   -1.81460741156209
C         0.03161788236426    0.90662970104973   -0.44281469562240
H         0.60829389913832    1.58140551363785   -1.04452741733368
C        -0.34056081910017    1.09744982911154    0.85302833719756
H        -0.14158688325730    1.91383638342638    1.51966020155334
C        -4.21734052704324    0.20138645188752    1.59571554405448
C        -4.27017471325044    0.71169082625782    0.30702710675314
H        -3.50487956753604    1.40352270675122   -0.01086366825543
C        -5.29396229092436    0.33684436274340   -0.54417422068721
H        -5.32433853364376    0.73385149094112   -1.54688330034089
C        -6.27495855838093   -0.54075232898589   -0.11048038434347
H        -7.07727177461218   -0.82677371556842   -0.77245164975342
C        -6.22468729105083   -1.05585675618375    1.17046254167171
H        -6.97808062882744   -1.74575971492224    1.51739103636038
C        -5.18368749888665   -0.71069179761114    2.02843695819374
O         0.38949902696954   -3.40000211391928    2.40660969883507
C        -0.64134471937275   -3.00887488633288    2.71457209404849

