47
CSD_code = WAVDOP | q = 0 | S = 0 | Stoichiometry = C14H21PPdS10 | MND = 4
C         5.36062604919358    4.22051842668002    3.47251490854785
H         4.51462347256388    4.91444877389865    3.44624815923346
H         5.04918062852067    3.22251416671033    3.16783573837166
H         6.17513267051695    4.57505218445927    2.84620907388408
C         6.44423445727384    5.73536064752983    5.48980907247980
C         5.68377653608428    6.58166139870206    6.22458797637305
C         7.84379537011068    7.92929105921218    5.55273962025183
C         8.11730501989128   -0.08982074882838    4.71535548011143
H         8.55421176028505    0.85273597883083    5.03046060179358
H         8.48312165160015   -0.36461412662441    3.73141768497053
H         8.33675270159582   -0.87758553205322    5.43011799357553
C         5.89946558352549    0.66546958323429    6.15040072080349
C         4.76834367004252    1.36550083749666    6.38076569047175
C         5.99133373833714    1.24877153062216    8.70821248577021
C         0.59522274810889    2.60758856198219    6.11542149914582
H         0.71095314662330    2.60415649085318    5.02752226459571
H         1.03642283601593    1.67650472184585    6.48305616880995
C        -0.87415950527599    2.68820158406187    6.50810936339853
H        -0.99336795076985    2.68526600492772    7.58836166544491
H        -1.40103288855603    1.82459911917084    6.10830345786372
H        -1.34550778417672    3.58145767114281    6.10675214381000
C         1.39841753652969    3.89365695622311    8.58872672158138
H         0.40903540601242    4.29387632971256    8.82663420119861
H         1.43192692496587    2.83585586748384    8.86968948767863
C         2.48870086984013    4.66122097733678    9.32749223409749
H         3.47673930734490    4.32278062350904    8.99773346748648
H         2.41032015351102    4.49878556953212   10.39972389289605
H         2.41435773774504    5.72885573233091    9.13167954545936
C         0.88488996221469    5.52369370509603    6.17098479728168
H        -0.19662768171219    5.50997911705903    6.31933410034757
H         1.31261636756585    6.33783386114129    6.76275938951606
C         1.25264964082640    5.69915055812310    4.69935966554543
H         2.34306292572265    5.57492557816004    4.58054697283935
H         0.97812956664787    6.68941036956120    4.34395068353949
H         0.75366310031682    4.95554730404870    4.08010065584618
P         1.64835036071833    3.96522484526996    6.76970004865998
Pd        3.80631542146494    4.03324188563536    6.10381443945752
S         5.98543200659631    4.06953011706883    5.18729373065954
S         7.99254025811920    6.31918022578906    4.89899311692884
S         8.96826030199333    9.08682166435498    5.34554703018237
S         6.35780654570629    8.18890559818015    6.45145541038579
S         4.16183028829422    6.23050008559054    6.91323610637236
S         6.31827704022656    0.09709676771537    4.54630623634001
S         6.92634466946238    0.34577111019476    7.54054948077339
S         6.44688514665186    1.44582199495939   10.25949038782447
S         4.50159361274888    1.88173583885457    8.04635695565088
S         3.61534861903448    1.85271898328368    5.19183947176362

