100
CSD_code = WAVDON | q = 1 | S = 0 | Stoichiometry = C48H48NP2Ru(1+) | MND = 8
Ru        1.94887116554804   11.56964835645061    7.08304602470283
P         2.59427896160275   13.16408113983848    5.49804457268286
P        -0.10863462698539   12.52431831462779    7.64571196947357
N         1.09303689985536   10.48802193519963    5.74201659362379
C         3.50871539506806   11.85934460727124    8.71732881967926
C         4.09765446330441   11.05551192182043    7.67071478066016
C         3.35158905428228    9.85296825434707    7.56619971713654
C         2.28921319892867    9.89574740516405    8.53359667631237
C         2.42534807561997   11.11270076960876    9.27637082783696
C         4.24419987514779   12.97859296069078    9.40127290530701
H         5.18958998012872   12.59163484865668    9.78668729654899
H         3.67675185850824   13.36793763969798   10.24279532541462
H         4.47340702088782   13.80051832804903    8.72322244642137
C         5.46037244046379   11.28523103547706    7.09571793763882
H         6.17421528959400   10.65619875601691    7.63220732496214
H         5.76312070480705   12.32126522250740    7.21887180346591
H         5.51452852507603   11.02799669245257    6.03923579201461
C         3.76111634042263    8.62574759683035    6.81067735635573
H         2.91192415584259    8.13982746825583    6.33027071911561
H         4.19627863723514    7.91129876720366    7.51235096020627
H         4.50949350148240    8.85471162971143    6.05559259549368
C         1.50582890377260    8.69230529970886    8.96152735725687
H         2.13092718040652    8.07284610220102    9.60836901979055
H         1.20645922206354    8.08715639055736    8.10744042140986
H         0.61366439876881    8.96889832132557    9.51765147990008
C         1.74279574093298   11.40101667021129   10.57628849728981
H         0.77824509629828   10.90196723454149   10.63897355474169
H         1.58764651952552   12.46657962405312   10.73299450225600
H         2.37087684509284   11.02543695845652   11.38703497293495
C         3.48524236931402   14.59873154550022    6.17469413225292
C         2.73824519277522   15.58714149742461    6.81338175327608
H         1.66049515643666   15.49900057581426    6.83582789779232
C         3.36371311787679   16.66913843660038    7.40276220578914
H         2.77307537826427   17.43233636853418    7.88710466420348
C         4.74587871823471   16.77209724634339    7.36929939869353
H         5.23729697815776   17.61540698428988    7.82959033897972
C         5.49585050074084   15.79187413348384    6.74027310333808
H         6.57229892897026   15.87140361628831    6.70996073521587
C         4.87234079568866   14.70730373801704    6.14650288960642
H         5.46382738931098   13.95420335939625    5.64615291609206
C         3.72457276819754   12.54386563153291    4.20048089516510
C         4.33887744467135   13.43055218669448    3.31877691100776
H         4.18228750218621   14.49425649932775    3.42906269448072
C         5.14552475993323   12.95081251558319    2.30473459250338
H         5.62530065779794   13.64243818745909    1.62894003238817
C         5.33551477625762   11.58602362431980    2.14894520540857
H         5.96667613704218   11.21578230121689    1.35576894790463
C         4.70728706727564   10.69950254819966    3.00647395836296
H         4.84575525339521    9.63533728037335    2.88054648797288
C         3.90229796647321   11.17781318182213    4.02624737465159
H         3.40130636990497   10.49110033556314    4.69634633032406
C         1.42126092470482   13.92896118153803    4.31776447139956
C         1.47109416717508   15.26078773142941    3.92349213971123
H         2.15276716803031   15.95029086399145    4.39969724522730
C         0.64102691180730   15.71363988981540    2.91249816491102
H         0.68391664533884   16.75041617304194    2.61364325683466
C        -0.22868373668695   14.84507019644033    2.27655056170952
H        -0.86502832298410   15.20237782303278    1.48156234421311
C        -0.27614833813490   13.51439081652428    2.65959921422453
H        -0.94997965180984   12.83213624111540    2.16352992036483
C         0.54261103996667   13.06086166031315    3.67470536182727
H         0.50916686551333   12.02463941525235    3.98258720761896
C        -1.27618604068658   13.06277945596215    6.33974973780780
C        -1.23712800406914   14.39318496118182    5.92536525308499
H        -0.53174446244067   15.07603347156403    6.37720961091128
C        -2.10858452767218   14.85500303860896    4.95890948379262
H        -2.07846821713669   15.89227712906584    4.66211170058708
C        -3.02015653585275   13.99009748801866    4.37610463344895
H        -3.70581443623757   14.35099954589116    3.62505711741918
C        -3.05188960751516   12.66266609110787    4.76619505284070
H        -3.76392255172611   11.98513461381921    4.31840325130968
C        -2.18681076023140   12.19894293747104    5.74201823641370
H        -2.24358544684571   11.16702388207903    6.05377657717455
C        -1.13310659210079   11.33833867447605    8.59384339483822
C        -1.32987064425163   10.07029511099873    8.04876026603882
H        -0.84648204423612    9.81262840019348    7.11599455325235
C        -2.11056026695744    9.13302355556346    8.70012954898507
H        -2.26333114743258    8.15849777626352    8.25999414304326
C        -2.68558210962378    9.43929082407407    9.92263269668816
H        -3.29355709951351    8.70923480396737   10.43415041628869
C        -2.46095772618322   10.68098810495704   10.49208231939316
H        -2.88694505449427   10.91860737616005   11.45518910022362
C        -1.69063132796915   11.62619909567634    9.83600573818020
H        -1.52117635347823   12.58429126848880   10.30352098087819
C        -0.15569240072460   14.00793535136914    8.70265063392913
C        -1.36622074709166   14.62722125115131    9.01493386826422
H        -2.29040172954567   14.23965666566145    8.60859656413876
C        -1.37869847332107   15.73970572815370    9.83460751317623
H        -2.31705239434946   16.21572693320202   10.07607246244491
C        -0.19265993525890   16.24618359997871   10.34687750295142
H        -0.21092764125620   17.11389175475686   10.98842562916563
C         1.01177250754668   15.64381510956538   10.02736072542717
H         1.93908742406177   16.04130899566028   10.41299806656119
C         1.02743371802975   14.52950836024822    9.20561301471449
H         1.96090278757957   14.06440832056898    8.92201702282964
C         0.73622700080166    9.63835542288301    5.04251720567944
C         0.25218529913377    8.64519718393336    4.12892260436006
H        -0.72865638904626    8.93888034615506    3.75278215550184
H         0.16509837743690    7.68021486692672    4.62923660607746
H         0.93950982713181    8.54874846699984    3.28746900810640

