21
CSD_code = WAVGEI | q = 0 | S = 0 | Stoichiometry = C9H8AuBrN2 | MND = 2
Au        3.55792402957521   12.32486180181989    4.10141480211229
Br        3.40805848397417   11.83523005297704    6.40413326839764
N         4.63160325457795   13.47511125090321    1.50323682308921
N         2.84940033046459   12.34746168328081    1.14823837193433
C         3.68735577506300   12.74504491553144    2.12107045909515
C         4.38943948457008   13.53686296018688    0.15723351273900
H         5.02153734849447   14.08103328494896   -0.51331659765690
C         3.26349459178215   12.82070270482492   -0.06774818334188
H         2.73672229450585   12.60779866954874   -0.97468760381725
C         1.69251229648568   11.50463384775001    1.34052427799631
C         1.88666485510424   10.20765753061485    0.71623203234549
C         2.08956552722199    9.15718411300272    0.18191468009179
H         2.24266747327217    8.22217614571129   -0.26859156105051
C         5.73851042276663   14.13069079388693    2.15968765577066
C         5.66386790209967   15.57096959893443    1.99142114191124
C         5.56504056405107   16.75006283482111    1.81675185212450
H         1.54360174888263   11.37671173708324    2.41868850259161
H         0.80813001044992   11.99037801272592    0.91107372943657
H         5.50172616127688   17.78974205101727    1.69164735582597
H         6.68446943903777   13.76187881043629    1.74418769431431
H         5.69490800634427   13.87820719999522    3.22528778609038

