46
CSD_code = WAVGEG | q = 1 | S = 0 | Stoichiometry = C21H22AuNP(1+) | MND = 2
Au        4.62488117450747    1.30632798513999    3.49861867646283
P         2.81672247199329    1.20957101411015    2.15219702588659
N         6.30448354391472    1.40291909212408    4.83030835561994
H         7.18969113413746    1.36566790594546    4.33529503089501
C         2.36574659251050   -0.47710327625550    1.67883071387066
C         2.36067252420828   -0.91383355562357    0.35930812927056
H         2.60870953510928   -0.23075642077412   -0.44086654096758
C         2.03225637416995   -2.22973061677466    0.07955179519105
H         2.02274855356064   -2.57085395692860   -0.94431767874831
C         1.71739874792072   -3.10465256606575    1.10595611803230
H         1.45995779834597   -4.12795162010540    0.88065083371651
C         1.73469706932285   -2.67189654859152    2.42432212231992
H         1.49167108522943   -3.35625537488257    3.22275339625314
C         2.06541799523636   -1.36288042084362    2.71357211306660
H         2.08407390207120   -1.00959381652198    3.73760513945222
C         1.33142657990974    1.90100671049317    2.92493041349938
C         0.06859687516255    1.34348982856775    2.75337133297856
H        -0.05217792741170    0.43957918699984    2.17222586442013
C        -1.02913308198958    1.94942451023728    3.33911751655850
H        -2.00988853785890    1.51813976274560    3.20877014392922
C        -0.87230576535512    3.10446178770396    4.08821594295660
H        -1.73237475420116    3.57193057766538    4.54188478171040
C         0.38639495742152    3.66079354328458    4.25920812057805
H         0.50655324328221    4.56047103935463    4.84315790120026
C         1.48817382033815    3.05973219089890    3.68149459239447
H         2.47826332779832    3.48222630464395    3.80591246183314
C         2.98236384335039    2.13085626783851    0.60470501269531
C         1.85146524019732    2.45746027087657   -0.14069328176693
H         0.87038392781167    2.17591681377110    0.21684244979849
C         1.99466333921605    3.14223072454030   -1.33269835357608
H         1.12105664393050    3.39640414067502   -1.91318166799197
C         3.25659926487551    3.50273671575775   -1.78135721968678
H         3.36273543816369    4.03841299046654   -2.71192095040013
C         4.38118173488646    3.18091159668365   -1.03838384062911
H         5.36163841932701    3.46451377302324   -1.38918518116418
C         4.24689227291582    2.49676767984826    0.15642826468194
H         5.11735853392718    2.24035928107552    0.74838819548548
C         6.35041803658212    0.74927981350246    6.13512935859569
H         5.44260309780927    0.24267651412893    6.42864892490019
H         7.25787174681716    0.22666189115107    6.40317902935003
C         6.34648547103620    2.22047437397817    6.04182571935930
H         7.28143899580591    2.73942633689300    6.22530465228993
C         5.12289837709852    3.02127936719597    6.38440751729544
H         5.14136501047207    3.27956315929047    7.44050753742268
H         4.21826210640430    2.45255932237693    6.18099639052259
H         5.09976126003864    3.94367570037853    5.80798314043877

