25
CSD_code = WAVGIM | q = 0 | S = 0 | Stoichiometry = C11H9AuBrN3 | MND = 2
Au        7.09172104819728    2.86207647301057    3.83533228295157
Br        8.68358397887944    3.83262949236207    2.39299619681156
C         5.69666079900117    2.04050361727441    5.06565546989666
C         4.68070216583623    1.40350427469151    6.95183355902917
H         4.60112099908368    1.19203983671726    7.99791169983178
C         3.76617156064431    1.33777837653135    5.96086084990822
H         2.73416927552086    1.05910255218147    5.95768495710779
N         5.85166604891030    1.83454809321537    6.38223958332624
N         4.40717329388317    1.71817827201205    4.80505069610017
C         7.06869310077109    2.06178943366380    7.12619439795554
H         7.84815774263657    2.36417282935476    6.41706258738031
H         7.37577234602067    1.13183233055842    7.62125524377029
C         6.88017856959668    3.10266491455815    8.12137022179349
C         6.67233021571981    3.95547698228048    8.93410994860510
H         6.52625178760087    4.71174566771182    9.64706839525334
C         3.74442984903573    1.79079617327936    3.56755699122804
C         4.40510443363844    1.61499740418796    2.35655695858606
H         5.45940313185344    1.39438217134239    2.32560180664503
C         3.66102788519567    1.72895624074202    1.19425914492266
H         4.14051555091713    1.60961476240176    0.23464343864529
C         2.30160100618521    1.98815474836939    1.28255612526305
H         1.69358874260479    2.08600678284898    0.39799008108617
C         1.73940108368614    2.10702645583894    2.54419440729747
H         0.68197946650794    2.28953227481295    2.67916009425500
N         2.44059591807637    2.01218984005185    3.65845486235088

