85
CSD_code = WAVJOT | q = 1 | S = 0 | Stoichiometry = C41H40NiP3(1+) | MND = 5
Ni       21.38415027110200    5.80137304896114    3.52953255901268
P        23.58496607412657    5.84526014599650    3.98555284188143
P        21.35835320967573    3.87047538455161    4.56827205855452
P        19.55853699216053    6.38003633242580    4.69176321013573
C        21.32621777857206    7.38188098903369    2.39224851464150
H        20.48851118432723    8.05800667096715    2.56939188019207
H        22.26323333866630    7.92899021128615    2.28326476469732
C        21.08164303088103    6.36025848641742    1.37794456376744
C        19.77847298225193    5.86383250542514    1.15577709716491
H        18.94694712902559    6.29785375458104    1.69796387374387
C        19.54767599633308    4.88818354089036    0.20363829076549
H        18.54243547461324    4.52845252721877    0.03946779703223
C        20.59715833336657    4.37807700482566   -0.54634930917787
H        20.41085363234538    3.62038324144587   -1.29186467721381
C        21.88597243264280    4.85381486242658   -0.34631390036851
H        22.70195078720708    4.46402439698578   -0.93572216003580
C        22.13056091027916    5.82529941054919    0.60252912034443
H        23.13277759546101    6.21139628154056    0.73442036830412
C        24.63309724497491    4.76226413732409    2.96331389261876
C        26.01985720747271    4.87217338581316    2.95157353866901
H        26.50683015579130    5.65190417540465    3.51957631052858
C        26.77290387999215    3.98245789580629    2.20694298667425
H        27.84863155069005    4.07111446738513    2.19661119100745
C        26.15334055091055    2.97919919024811    1.47819061883935
H        26.74728663424814    2.29001234206672    0.89786387119928
C        24.77298317118606    2.86160433414903    1.49390544303198
H        24.28614054974279    2.07965567149972    0.93048865792287
C        24.01599037473993    3.75191271362503    2.23218546268349
H        22.93356895228763    3.67191467099403    2.23616024848550
C        24.62191123551989    7.31241365610577    4.23834862430831
C        25.05797300908892    7.98944174762242    3.09984229311207
H        24.81892452589475    7.59196788808248    2.12177394981451
C        25.80876733177905    9.14292941995001    3.21699968860849
H        26.15063232688296    9.65623985719106    2.33115469479768
C        26.12141747255661    9.63901204739210    4.47322760579577
H        26.70780345619152   10.53985451404367    4.56696008754277
C        25.68085495243191    8.97787432914488    5.60752802528335
H        25.92636327948422    9.36357466313562    6.58573404506642
C        24.92774238561244    7.82178629808339    5.49576106351230
H        24.58817199914639    7.31738742537897    6.38804698928359
C        23.68552862960910    4.91056866230123    5.58872198963752
H        24.73282092695954    4.77632441991264    5.87514520398895
H        23.17839278451416    5.50294984911770    6.35708493600323
C        22.97648922701974    3.56898766742762    5.41498041144930
H        22.81795357316013    3.07900111267445    6.37951097833892
H        23.56995921920899    2.90526778953165    4.77845308486644
C        20.88668700115340    2.25542435978658    3.89519305631548
C        21.04377797807914    1.07786850703452    4.61939431999830
H        21.46130100967935    1.10290438653304    5.61582529166235
C        20.66415584436751   -0.12580854372342    4.05591578554285
H        20.78467528249717   -1.04124647858585    4.61535598025252
C        20.12799029922040   -0.16110016453915    2.77749291139419
H        19.83501811098482   -1.10532427001806    2.34496605041061
C        19.96984014198700    1.00996805732146    2.05557433027447
H        19.55443595499558    0.98264412967661    1.05953793276196
C        20.35023765462077    2.21736686553470    2.61305447748185
H        20.23637114485551    3.14089121505283    2.05741394878189
C        20.20408517242055    4.07723178690019    6.00555631202316
H        19.94667590949801    3.10131260126603    6.42621732025413
H        20.71625327369045    4.67093132338777    6.77077112341853
C        18.97088640696957    4.82275078461489    5.50952552267931
H        18.27280697480005    5.04900003090556    6.31950466543627
H        18.45621591135937    4.21393893033920    4.75951448628501
C        20.01973328118845    7.39394609851037    6.13266570934553
C        21.30370696815015    7.92104233510827    6.19646679789014
H        21.99294194879986    7.72667966507985    5.37727146332500
C        21.68669322758936    8.69665356322821    7.27604991416381
H        22.68306571857161    9.11082036586360    7.31646177272794
C        20.78389459968742    8.94818022166883    8.29591416593061
H        21.07749086998958    9.55348710169719    9.13971533451902
C        19.49781631572689    8.43223374271794    8.23136380013796
H        18.79374080160920    8.63895882793907    9.02297969365994
C        19.11077352704210    7.65966941729861    7.15260032772292
H        18.10149990265582    7.27677594756478    7.09319622261819
C        18.03797191327213    7.19711672893687    4.13296754162890
C        17.99554398534786    8.59012469648783    4.13539760379066
H        18.83878559254743    9.14906088449355    4.51923242454063
C        16.87779518893827    9.25196886611541    3.66334614719452
H        16.84744427773987   10.33080362856482    3.67651900622978
C        15.80023100868176    8.53169772347318    3.17263507143318
H        14.92751807720051    9.04877179637016    2.80504086433229
C        15.84640449192404    7.14726052984372    3.14755825876345
H        15.01073648998663    6.58553161881501    2.75823370156399
C        16.96312861625620    6.47900689474028    3.61662117211700
H        16.99451536578536    5.39946269705822    3.57974670487703

