99
CSD_code = WAVJUA | q = 0 | S = 0 | Stoichiometry = C36H58P4Ru | MND = 6
Ru        7.09778939605551    5.00401320778602   22.56453449527801
P         8.80182164167262    4.29013089921367   23.87407585342338
P         7.88447180420633    7.07432912275801   23.00494326084784
P         5.83191127753560    3.16382968918911   22.25184564350247
P         7.95249745729273    4.49103251675526   20.52205312202664
C         9.52604930903500    1.87059900310981   22.59264988388412
C         9.92743985918404    2.78307510232240   23.74308846909905
C         9.89760157501112    2.04436831303556   25.08852518994986
C         9.57817173285432    3.03949670082001   26.19772353178539
C         8.46540797772157    3.95065796452426   25.68906129891389
C         8.29328059295628    5.21672554161949   26.51404967161823
C         9.99640221708464    5.67403195177158   24.10718357485115
C        11.27382915718234    5.53612982795532   24.63895912580193
C        12.05625178761102    6.64718821280112   24.90359793756038
C        11.56067296974333    7.91764742950050   24.66956246912745
C        10.29366127459712    8.07107521814483   24.13621780605543
C         9.51418350242242    6.96122438973244   23.83086963163339
C         5.71981009687503    7.71751825541124   24.81336515498432
C         6.95965216268941    8.28031947893664   24.13438137793096
C         6.57157175048423    9.47721490243503   23.26264456346616
C         7.71906532437883    9.75330626321320   22.30945865124827
C         8.08138706974344    8.40673126283608   21.68808675190785
C         9.38984869865446    8.44616057069497   20.91717411405210
C         3.35033863495330    4.44915953167634   22.46025649490104
C         4.07381271724214    3.37915375312045   21.65061000361215
C         3.40466941705044    2.01457157438345   21.80549479999525
C         3.87387029336160    1.37789969686526   23.12239957799219
C         5.19954485770148    2.01277336037332   23.57950607187543
C         6.19977298907031    1.01246744549077   24.13728115417311
C         6.50598114498209    2.13810771757007   20.89615064429146
C         6.17310392799993    0.80803854530819   20.66504465560419
C         6.70279345675006    0.12460292687791   19.58518067174606
C         7.56805337609978    0.77157742970157   18.72210493590683
C         7.93459420151326    2.08407636919382   18.96396133578633
C         7.42843910106252    2.78063921447812   20.05722188892277
C         5.92529009527842    5.15514975880759   18.64780049830049
C         7.35712277313809    5.47407479636008   19.04584926749675
C         8.37100240552716    5.29494797440445   17.92098871524727
C         9.75585229414061    5.29443308258344   18.55984170520491
C         9.72482300367897    4.47746605177203   19.86129462769236
C        10.73596032869658    4.99320621912896   20.87782933990010
H         6.26589834657791    5.16327884443547   23.84726581430465
H        10.17201434924552    0.99317794765852   22.55396502479786
H         9.59801195041707    2.39404131982368   21.64073185986897
H         8.49546755870619    1.53843271015630   22.70574482976660
H         5.97749489221651    5.77102901852418   21.82694214749072
H        10.94246902638037    3.14768424827592   23.54852428989478
H         9.12335227449565    1.27452220706315   25.06055667247257
H        10.85018198873203    1.54130436771043   25.27128411455409
H         9.27141129734251    2.52334370758281   27.11057851585409
H        10.45898529437641    3.63778801085429   26.43843423524136
H         7.51090983806354    3.40561511033501   25.68685851947176
H         7.82703504919129    4.99257508247138   27.47255387086402
H         7.66055411310396    5.91842917059066   25.97060838946427
H         9.25342431416611    5.69613984388084   26.70012553619346
H        11.68222471022847    4.55914698350226   24.85068113504483
H        13.05071325288550    6.51894420238153   25.30691367947007
H        12.16167955585673    8.78661879701711   24.89653437872832
H         9.90937958447729    9.06521035017234   23.96292538043481
H         5.18618848829882    8.52013355954726   25.32283936928224
H         5.96546029804825    6.95390751863495   25.54616548192269
H         5.06172839948854    7.27116912210573   24.07027620521023
H         7.68129077787906    8.60070284683625   24.89895381518265
H         5.68063476815408    9.21733013519028   22.68568606623552
H         6.33714757559729   10.34595419909061   23.88178998167216
H         8.56929260568113   10.17708085095671   22.84706918224205
H         7.43235227940882   10.46730051772791   21.53334303986880
H         7.27126407854357    8.13770541934824   20.99067060252803
H         9.37266466649902    9.27309704319685   20.20659236210324
H         9.52440169459639    7.52444356747088   20.35944271415676
H        10.24278383388289    8.58151376162611   21.58012250318261
H         2.36616720400107    4.64298984570371   22.03488012368172
H         3.92721632893872    5.37226981793967   22.45250194839356
H         3.22660850409893    4.13513330173404   23.49391581325724
H         4.10068681055341    3.68162277927634   20.59693524474114
H         3.67034452114452    1.38023513112328   20.95833457534277
H         2.31833080396639    2.12664053393357   21.79661204661586
H         3.99393873726247    0.29925027242605   22.99946734156612
H         3.11826526568580    1.52328794551900   23.89696880180319
H         4.98827215908529    2.74144257774754   24.37909996569575
H         5.77444965870929    0.49158013921800   24.99561470211811
H         7.09135071412089    1.54245112798152   24.46638728531905
H         6.48945346745641    0.27022632650400   23.39539540100895
H         5.50984625378432    0.28769944839597   21.33666074620783
H         6.43959810616605   -0.91022048608443   19.41850701940250
H         7.97570127601355    0.24982581145850   17.86791891846324
H         8.63559743561361    2.54913932985243   18.28808389236689
H         5.59165993179493    5.82192743118286   17.85325414596097
H         5.27296370962756    5.28848652514464   19.51085107198568
H         5.83872638917696    4.12673267146688   18.29737187547653
H         7.39572697374452    6.51547316607220   19.39654285601443
H         8.18201118692467    4.35827461560793   17.39475732123174
H         8.28185907554802    6.10210725425764   17.18950017500583
H        10.50702651474153    4.89180698839033   17.87587321301674
H        10.04272641419601    6.32384079029075   18.78540717821834
H         9.97780714517893    3.43445576095620   19.63948556869328
H        11.69912077790311    5.17522605848004   20.40055149783651
H        10.88432833627171    4.27075188130684   21.67649227043413
H        10.39349578250202    5.92037121730034   21.33458131503335

