23
CSD_code = WAVJUB | q = 0 | S = 0 | Stoichiometry = C9H9AuCl3N | MND = 4
Au        6.26799607090035    5.11783727712052    5.88645714566462
Cl        6.65195078294633    5.06769236587944    8.06915649413755
Cl        3.98455239143606    4.97802518556180    6.15834155780619
Cl        8.51494218462785    5.24643627917492    5.43772627335181
N         5.46143459820502    5.13830475258882    2.92245660953589
C         5.84689450409695    5.15080906361675    4.01167473001663
C         5.01317670553948    5.11458148799570    1.65096500185647
C         3.62645269484271    5.16033008779510    1.43072175737033
C         3.19344851461505    5.12307373713228    0.11443773007901
H         2.13469766676042    5.15453386533606   -0.09167655010477
C         4.09978129532352    5.04674506442477   -0.93060026716833
H         3.73972831781970    5.01856313509986   -1.94765181522032
C         5.46338539209274    5.00716128587974   -0.68640315539188
H         6.15764164276339    4.94954512827877   -1.51045933221503
C         5.95247911564588    5.03999852437691    0.60942870062771
C         7.41275770870916    4.99710404074333    0.91538533714767
H         7.71411237656176    5.87601085548710    1.48496006660050
H         7.99547151813096    4.95715209138277   -0.00010088869229
H         7.65368355634496    4.12415031085341    1.52187473103131
C         2.68183395836311    5.25680008210197    2.58045174184426
H         2.86082993014087    4.46514249188441    3.30700420365012
H         1.65305756724397    5.19659018556626    2.23833454061519
H         2.81809150686483    6.20101270170794    3.10781538744180

