112
CSD_code = WAVKUB | q = 0 | S = 0 | Stoichiometry = C42H64P4RuSi | MND = 6
C         5.11329438401850   17.56873693905986    7.36228718501065
C         3.98627029037338   17.78515457934673    8.14305315748007
H         3.04121661688312   17.98388837865970    7.65621864530222
C         4.04661702714957   17.76812030840848    9.52614492513121
H         3.15205060453130   17.93932167218750   10.11015980994972
C         5.25357707424696   17.53482842020677   10.16249765154919
H         5.30681122117623   17.51826398854897   11.24227454139607
C         6.39415969590559   17.33485793525039    9.40303094241540
H         7.34469497231713   17.16528666308042    9.89180959537382
C         6.31704037545832   17.35592313777819    8.02224329273675
H         7.21540263715884   17.21146835788372    7.43648309635323
C         2.54574539817243   15.09436338918255    5.93841766656602
H         1.47886621850220   14.88998870026071    6.03064823593170
H         2.75072794511917   15.50311372607869    4.94767841409192
H         2.82229217177044   15.84797620891115    6.67061812950407
C         3.36205631174583   13.82562123729260    6.13873931858273
H         2.93267574951933   13.03586888660215    5.50990107619267
C         3.39500357180082   13.40135960465369    7.60785897029038
H         2.44063875203821   13.62198044163864    8.09033173051330
H         3.57341038537389   12.32783620722534    7.70173818117950
C         4.53431770191260   14.16678623517797    8.26716984742043
H         4.72880495691360   13.80240563598421    9.27758177517008
H         4.27221282951917   15.22326834174545    8.33538966968351
C         5.77511399278890   14.00628671533875    7.38686241678051
H         6.43413453155745   14.87043098837901    7.53229175026238
C         6.54600312098482   12.73130155554815    7.72256123225129
H         6.98542492921551   12.82781882615284    8.71505201755363
H         7.34929073052400   12.54944624600032    7.01028029518786
H         5.89449179148808   11.86031974072243    7.72233112815461
C         5.64375294054950   12.49999148305471    4.93874461521487
C         5.03098122237264   11.29279480274170    5.25501413242013
H         4.15709133865335   11.27001883723121    5.88835504509301
C         5.52503620847460   10.09890307886543    4.75937962246441
H         5.02803775870666    9.17022030112660    5.00040847698881
C         6.66537367358186   10.09186041034036    3.97458496019291
H         7.06881922089982    9.15811659698369    3.61020427189861
C         7.28876576223004   11.28432081580806    3.65622022269204
H         8.18679179595675   11.26900126689632    3.05673754354531
C         6.76731792662506   12.49445421634187    4.10217547949909
C         9.27300445054989   14.62105587471918    5.94242543510321
H        10.11871713395048   14.20569026829144    6.49068553942864
H         8.38057506665507   14.52135903972714    6.55407872861931
H         9.45938686176479   15.68088104283174    5.78874620004104
C         9.10912586139847   13.88737160323614    4.62134480732608
H         9.13298968869623   12.80735216182708    4.83037373070324
C        10.22766740757487   14.19798843160480    3.62986812442717
H        10.31705020901079   15.27779983853820    3.49188918919114
H        11.18450105561966   13.82172097479723    3.99834829712839
C         9.82947361957276   13.54652016438322    2.31676208976583
H         9.89464153203052   12.45991611864022    2.40430492763076
H        10.48505120786156   13.85153674068385    1.49746772426889
C         8.39149412260720   13.98472494873218    2.03930312281949
H         8.42896352540492   15.04794089981957    1.74416003971209
C         7.74570993441910   13.22354125953549    0.89165203298305
H         8.38213404735397   13.29936584374466    0.00945146875145
H         6.77879540025144   13.64996216372345    0.64191827345058
H         7.61192326646238   12.16948667638949    1.12229932658312
C         9.00940436888571   18.00054603469756    3.88482784933926
H        10.04019565776717   18.35137586948335    3.83346898970988
H         8.99283638761729   17.00167599606064    4.31527806873317
H         8.44575848056354   18.65343922384906    4.54828996399201
C         8.37878320365147   17.95878020088769    2.49846891821612
H         8.98939685072552   17.30606219493298    1.86099628480912
C         8.24111296386386   19.36059792074895    1.90466250724522
H         9.11875662595227   19.96663249385867    2.13956409906532
H         8.14631736031376   19.31632284759108    0.81759380399790
C         6.97432552499384   19.96382627210913    2.49816974221993
H         6.72362595922044   20.91274233807824    2.02050367813420
H         7.12102962924714   20.14980793292186    3.56342310502816
C         5.84806357708039   18.94631549808287    2.30744366133060
H         5.08904910413079   19.08642463791823    3.08323108483808
C         5.18054964088542   19.10669244850653    0.94321672971789
H         4.67573244458497   20.07161207562353    0.90367447035367
H         4.43854744903992   18.32985106710027    0.76961034751504
H         5.90614935968993   19.06774894622109    0.13361918610859
C         6.34584412114791   16.47436583085556    1.01288046192576
C         7.09037337283046   16.67536182467357   -0.14245911006158
H         7.99399250977714   17.26707101957699   -0.11762319621265
C         6.68679889327387   16.11233655350179   -1.34099163445739
H         7.28181525689217   16.25630505069734   -2.23130191440957
C         5.50671182710757   15.39155223189358   -1.40382882393494
H         5.17104320262559   14.98212610636414   -2.34581646754062
C         4.75521436273584   15.19066375756928   -0.25903591929933
H         3.82610236723912   14.64548623342133   -0.32903091468465
C         5.18581388120846   15.69069994983387    0.96554185763165
C         2.32712917146546   17.50472922757368    2.80597597861023
H         1.45984525278823   17.95914403052997    2.32679701071482
H         3.15230097507332   18.20944998425248    2.76449921781139
H         2.08635551228898   17.33062342686519    3.85091586275347
C         2.67884156346161   16.20567362840434    2.10020177187628
H         2.77601883797661   16.41456917244066    1.02495888589341
C         1.58943843608026   15.14914698662561    2.28262121229992
H         1.31421474766695   15.07329094280497    3.33559720856911
H         0.69384398360922   15.42727614932490    1.72228497924283
C         2.15696402190099   13.82375170843422    1.80372007168566
H         2.20719852903200   13.81173477222038    0.71296241600622
H         1.52820703151812   12.98409658584160    2.10945595077821
C         3.55523250472251   13.68999850113792    2.40599455670244
H         3.44250712057323   13.40723477364644    3.46457613165881
C         4.38529573695770   12.60543971870094    1.73788276335161
H         3.94562618846736   11.62772514342825    1.93604449452545
H         5.39601161153585   12.60714358476289    2.13728178936259
H         4.43948821032059   12.74026814711144    0.66050704387837
P         7.47634978112378   14.12934491200316    3.68058334623029
P         5.14113664641146   14.13467644115935    5.61697419563751
P         6.64631494495734   17.26215276234735    2.63486898921536
P         4.34047785468897   15.39650633774830    2.56915246086457
Ru        5.92028934928382   15.76749541315532    4.20426594184395
H         7.00950695444031   16.13243872160922    5.22008958883894
Si        5.03556575116841   17.62344550373912    5.45679948229371
H         5.79766266852378   18.91720632488704    5.29818111086370
H         3.66581400364059   18.20439561428092    5.29197258325025

