99
CSD_code = WAVKAH | q = 0 | S = 0 | Stoichiometry = C36H58P4Ru | MND = 6
H        -4.14583357270016   -9.79214622925092  -10.54341324889339
H        -2.74072535415789   -9.02472092906735  -12.66327438845115
H        -2.57712244814022   -9.94606432140698  -14.16829670395876
H        -1.14843344519050   -9.25037950392597  -13.39296940069740
H        -4.43227333803941   -9.18451967326288   -8.52326380526697
H        -2.89913350563784  -11.53873410134747  -12.38883752883010
H         0.05095275349051  -11.31267425010169  -13.13476162728006
H        -1.13899222555412  -12.42059609064184  -13.81370340515431
H         0.43158067042343  -13.41658977844705  -11.97583414906303
H        -1.29675010214346  -13.67482981515158  -11.76641231479461
H         0.53141841273020  -11.81252388077220  -10.25124432604005
H        -0.80582520157752  -12.56970378962579   -8.34230036069100
H        -0.24762066328330  -13.97053005718180   -9.26501664212376
H        -1.92078742978034  -13.41182203868685   -9.40540461020090
H         1.27470974388835  -10.39499325047172  -11.54166096696291
H         2.64606434691506   -8.43549130275734  -11.98988301110320
H         1.75833248942250   -6.16795833799837  -11.57576888320922
H        -0.49611014171995   -5.88958035880699  -10.64738936209078
H        -4.44545496983144   -8.00616838559933  -12.24114801923191
H        -5.21986607483773   -6.43639137589449  -12.02610116487847
H        -5.34886458627478   -7.67874660030278  -10.76748591380050
H        -2.72513269008557   -6.35981106190979  -11.60055993936889
H        -4.73005102236031   -5.72834644436039   -9.39588537970914
H        -4.06152888248894   -4.60628940497484  -10.59130583995428
H        -2.98095571314489   -4.48519972852724   -8.23536615459613
H        -1.83722772795661   -4.77954729840098   -9.54201915129881
H        -3.15307916381565   -6.81478712879501   -7.69328008718491
H        -0.90596201027783   -7.43531493618066   -7.04737740792908
H        -1.05581733792735   -5.68674210808911   -6.89075410891700
H        -0.17638451855245   -6.37571618742611   -8.25973034914560
H        -6.48197170329738   -9.58448664772570   -9.14748108351048
H        -8.04185778257635  -10.30982941538207   -8.71917702968995
H        -7.19087823150833  -10.82283201405826  -10.18178116653749
H        -6.30473929056283  -11.27302809706982   -7.28816503495656
H        -8.08989627949230  -12.82907616394666   -8.48244503763938
H        -6.73551172477364  -13.57469156468052   -7.64733877310367
H        -6.41517691198316  -14.65632219584713   -9.68840998711235
H        -7.29569376574868  -13.43473409343579  -10.58431107348652
H        -5.42970948017532  -12.21148072339661  -11.07113100533423
H        -3.32534271690387  -13.40732246724733  -11.16789363664482
H        -4.64284121289967  -14.45856526241135  -11.69522617253688
H        -3.92220460452406  -14.68292242006424  -10.09783494214884
H        -4.89648370939823  -14.66816454737041   -8.03353321897168
H        -3.96559682347565  -15.86571257204368   -6.11566263153851
H        -2.42873885861510  -14.70516042923152   -4.56611054617362
H        -1.76878600727667  -12.40616544678021   -4.98748969565449
H        -5.13090344141731   -9.66359476527302   -6.20570382455692
H        -4.80980513926460   -9.13375490556904   -4.54741500463656
H        -4.56524138500281  -10.82840389076508   -4.99520407618004
H        -3.00714616136413   -8.43979892277527   -6.09254658711724
H        -2.11733212494802   -8.85529876398430   -3.88792169594171
H        -2.22241958192203  -10.59880287797853   -4.09242164285229
H         0.10296715132288  -10.07569216999072   -4.57600844692171
H        -0.35448076654369   -8.63904775230821   -5.48134101978710
H        -0.42907861291070  -11.52461561211480   -6.34540148671858
H         0.45380773012487  -10.67231278733183   -8.39369665325727
H         1.30097132356371   -9.81193587521105   -7.10801660556165
H         0.00257928432827   -9.02037479534209   -8.01252207647122
C        -2.11041521309045   -9.72691409891394  -13.20890460789325
C        -1.94312105702579  -10.99631884441134  -12.38807090265599
C        -0.83234687087729  -11.90899453305238  -12.89828042873459
C        -0.51843384575942  -12.90905261288313  -11.79210192872465
C        -0.48498979774203  -12.17375724323552  -10.44495209888540
C        -0.88707274545098  -13.08808021392006   -9.29622921223612
C        -0.41173385287368   -9.28039678701832  -10.79906976615781
C         0.86672811603144   -9.41816792326780  -11.32836960047278
C         1.65083240443016   -8.30724669042442  -11.58847821957463
C         1.15599075413855   -7.03691734688768  -11.35233347095819
C        -0.11220774976196   -6.88361961009510  -10.82183856293180
C        -0.89356993831724   -7.99339421211918  -10.52107557090710
C        -4.68900347420278   -7.23810270934590  -11.51236988228860
C        -3.44794847457600   -6.67558182917144  -10.83516325543709
C        -3.83462525370874   -5.47440631255006   -9.96849511457799
C        -2.69166906444475   -5.20069288372880   -9.00914176777356
C        -2.33693879055849   -6.54766086247192   -8.38444242674933
C        -1.03445196816097   -6.51169330872247   -7.60352628010885
C        -7.06056991347076  -10.50653598149474   -9.14970486445362
C        -6.33442538798710  -11.57596175553287   -8.34160632073790
C        -7.00357484681697  -12.94083697133848   -8.49410058688778
C        -6.53746780457349  -13.57799732426718   -9.81192828166784
C        -5.21436815591089  -12.94123357151362  -10.27364029561574
C        -4.21516936511857  -13.93928621748062  -10.83707152359352
C        -3.90125149905471  -12.81729892782231   -7.59311667619522
C        -4.23329349258428  -14.14757822772017   -7.36206559530235
C        -3.70271102001718  -14.83084960679591   -6.28255292729728
C        -2.83701131995693  -14.18360845325642   -5.42012383159052
C        -2.47062554505119  -12.87116122156304   -5.66251826706972
C        -2.97805758567045  -12.17459219276613   -6.75519732444428
C        -4.47783648945236   -9.79938302544976   -5.34358472412690
C        -3.04608787108981   -9.48146413059425   -5.74286235350529
C        -2.03114556254777   -9.66292197090295   -4.61924268906498
C        -0.64640761502136   -9.66769055498712   -5.25874940618320
C        -0.68117655721425  -10.48039409633998   -6.56274203907355
C         0.32955903354239   -9.96363577414605   -7.57886606302732
P        -1.60778723439350  -10.66394253917715  -10.57152727196073
P        -2.52651904497905   -7.88050793611498   -9.70152817062005
P        -4.57781407519804  -11.79125721399728   -8.94720614790779
P        -2.45441767811809  -10.46415455283972   -7.22062619355997
Ru       -3.31227961118863   -9.95096418349665   -9.26175694232134

