50
CSD_code = WAVKAI | q = 0 | S = 0 | Stoichiometry = C22H21AuCl3N3 | MND = 4
Au        5.80918021882255    2.33161071863097    1.20058647677762
Cl        7.76378748524143    1.60006154420382    2.11584328395641
Cl        4.71121571962053    2.47185480334971    3.16201254693669
Cl        4.03829594607661    2.96467293891920   -0.09692399402737
N         7.26632425941840    3.54926108967185   -0.76515855455701
N         7.01737997366673    4.48662551006531    0.17849495462563
C         7.65074214169458    1.62562894578797   -2.66268883577689
C         6.79644628158661    2.33941466291255   -0.53444440633664
C         7.29707346454607    5.72161630038329   -0.02556795975010
C         7.03017764307856    6.66253234851977    1.05571781567367
C         7.01281488155069    8.03790259817005    0.81393991371491
H         7.19447930178021    8.41256097808308   -0.18307928625819
C         6.74275111379946    8.92008386842763    1.84236292866121
H         6.72840873444225    9.98212330697952    1.64666829763677
C         6.48479529789254    8.44564105056252    3.11874290443029
H         6.27340162248594    9.13919338909270    3.91890495144276
C         6.49316154757666    7.08081593751994    3.36604359816459
H         6.28585169005817    6.70797450900033    4.35736557861784
C         6.76326959289044    6.19273373437961    2.34510193515061
H         6.77343775503699    5.12995080953452    2.52801926605215
C         7.87700832924485    6.20152248491324   -1.30050860747879
C         9.10635935843688    6.85552630719860   -1.31025099533531
H         9.61386798417593    7.04414847990734   -0.37566226281195
C         9.67341331378496    7.24569823187300   -2.50959543344913
H        10.62694627351385    7.75188037242282   -2.51076415954549
C         9.02145103145235    6.99074078104909   -3.70570692193959
H         9.46755805607089    7.29778082972071   -4.63945114690017
C         7.79435330491497    6.34897761017790   -3.70233529331795
H         7.27889368498446    6.15701084855239   -4.63114698691533
C         7.22335698305792    5.95042461122633   -2.50680643435649
H         6.25156905463805    5.47572072825768   -2.49967871726551
N         6.97015805850307    1.38859133995571   -1.42164552505743
C         6.93686690790484    2.17043085667626   -3.73065026101644
C         7.63483318504087    2.44794958196286   -4.89987675810115
H         7.10527090212874    2.86742926381692   -5.74175182366424
C         8.99026152330254    2.18996539971828   -4.99401560631466
H         9.51656988669990    2.41398033560237   -5.90926750150770
C         9.67561651144983    1.64430737504991   -3.92329089887663
H        10.73262592485043    1.44168772758201   -4.00419511274171
C         9.01765061245753    1.35691473170200   -2.73447678870340
C         9.73548400351661    0.76605206307644   -1.56207181995381
H         9.48906762078790    1.28426125414463   -0.63625890071473
H        10.81051043896858    0.80723313290403   -1.71227232222776
H         9.44977205256528   -0.27818534481143   -1.43477922189628
C         5.46366340683998    2.41438420238681   -3.63257960582342
H         5.13707384425679    3.09196665282354   -4.41678726977470
H         5.16895180954938    2.82168434255163   -2.66681996213796
H         4.92701167034645    1.47368686931109   -3.75793941813108
H         7.76723008441943    3.79838259500749   -1.62563606713147
H         6.63090951078277    0.45838729168879   -1.22211959171563

