111
CSD_code = WAVLOV | q = 1 | S = 0 | Stoichiometry = C43H55N2O4P4RuS2(1+) | MND = 9
C         3.82074579878241    5.16369180134903    7.46647910946953
C         4.32061523352635    4.02250347677730    8.12700324057358
H         4.85287547832961    3.26519813165597    7.55743183799447
C         4.03105668958365    3.76977641260429    9.49405476563895
H         4.34468069796504    2.83000083851998    9.93143863153325
C         3.24453883561860    4.67759674342728   10.23047811381405
C         2.76516045234342    5.85225845282126    9.57602733410614
H         2.12021868926896    6.53149104988724   10.12254241946935
C         3.05723038012994    6.09463309931820    8.23016836278606
H         2.64556512620855    6.96732358303981    7.73406304260639
C         3.97636401744816    5.34624716100627    5.98727210941292
H         4.32140428967852    6.35366780589657    5.76014187334049
H         3.00935187569906    5.20749889613377    5.50156403160281
H         4.67457773411369    4.62279325461113    5.57012785568500
C         2.76589665374278    4.38975508298336   11.63388442764119
H         2.76406469963385    5.33844829142207   12.18465223484310
C         1.32385966100421    3.87130901545934   11.54759605795380
H         0.93984708839120    3.68129859666744   12.54615935658629
H         1.29053592368436    2.94224505438924   10.98215281919741
H         0.67456825671801    4.59463943764589   11.06070612457202
C         3.64175413364975    3.39218240991376   12.38827842784390
H         3.33558835657766    3.35716676749713   13.43083935652264
H         4.68815053803094    3.68666330994968   12.33946762042953
H         3.54000808496607    2.38977308025616   11.97760486399917
C         5.79450554754599    5.43432020006865   14.49030848365025
H         4.79365282576318    5.56895524573138   14.06946977044861
H         6.13347028112823    6.39863118111947   14.88163381849288
C         5.79996029556647    4.37180805312163   15.57229809803424
H         5.12315247138887    4.66292721585725   16.37015387946870
H         6.79972557945757    4.25409755918751   15.98195839946099
H         5.47897161305805    3.41771062039859   15.16302157543161
C         8.92506662441247    7.03576718335714   13.87666605893580
H         9.79074720605553    7.09330432519206   13.21223102633397
H         8.88015627100143    6.02828443943363   14.30279648057495
C         8.99600157670536    8.09052964076378   14.96326184882536
H         9.90691861218575    7.95789754185022   15.53978105780794
H         8.14135580632251    8.01225019311810   15.63040288262554
H         8.99550477899386    9.08012135838200   14.51580702293935
C         7.47025837026313    2.95069645514177   10.13706923209558
C         7.07126187815261    2.43083864300716   11.36117844801942
H         7.19216487712151    3.03144496539731   12.25126611079839
C         6.53301996112656    1.15667045521024   11.42515168389178
H         6.21912269938179    0.75165242864666   12.37539844643204
C         6.40382905478114    0.40110880119157   10.27129963412328
H         5.98461145963114   -0.59236729263355   10.32098368566266
C         6.82593810088177    0.91053369256058    9.05155989871268
H         6.74093131866744    0.30984561268799    8.15829270523912
C         7.36296466144123    2.18212627857744    8.98100037768618
H         7.71362787014155    2.57655582000599    8.03685530075794
C         9.85258042896465    4.45384447768535    9.46602290936240
C        10.19196071200054    4.57136664896881    8.12361008085862
H         9.43702603323013    4.79819349238695    7.38281819372848
C        11.51225080765448    4.42140069220960    7.73661178770723
H        11.77927081585549    4.52405159114244    6.69562707774408
C        12.48641240065831    4.14389107945650    8.68219131514640
H        13.51444917584723    4.02737279820444    8.37532796968477
C        12.14502575067317    4.01722406486785   10.02033905179919
H        12.90608045364151    3.79891218721702   10.75401850383623
C        10.82909510736000    4.17030864731619   10.41502985535921
H        10.53862084190118    4.08857664846959   11.45198580796008
C         7.09532797320297    5.47729002494800    8.89497344388717
H         7.17843988595260    4.95017914523567    7.93104533408712
C         8.35139517820682    7.43060523838591    7.04179793708181
C         7.80345350890991    6.77811273273842    5.94005332127287
H         6.89131878136108    6.20546776185883    6.06096388342623
C         8.40758156772952    6.88956080329971    4.70239300320593
H         7.98521762908575    6.38403351698965    3.84622865323146
C         9.55492932598514    7.65574418958388    4.56291829426942
H        10.02405863953708    7.74865315710332    3.59537703968981
C        10.09152346628445    8.31356535329701    5.65809060637215
H        10.97429942336177    8.92317818177315    5.54216000793200
C         9.49563131977629    8.20486637257851    6.90222967162823
H         9.89576925276221    8.74032880412238    7.74966608548057
C         8.30293738118924    8.09905578363743    9.89440481465406
C         7.66980083716750    9.11430165856538   10.59985890663910
H         6.62027899228643    9.30912432773393   10.42637756537997
C         8.39099146857619    9.86522241994321   11.50925545876793
H         7.90420886074718   10.66152812473375   12.05078878186431
C         9.73547955848676    9.60135822737646   11.71291085721555
H        10.30355068141687   10.19890505702756   12.41035577121963
C        10.36162175763667    8.57316665248647   11.02333128315029
H        11.40872856287733    8.36594060790353   11.18924719338677
C         9.65126321203245    7.82116635177626   10.10710214335225
H        10.13186180427238    7.02383977134217    9.55548819781714
C         4.78865782570129    9.36530826592955    5.09415367578421
H         3.97600478610893    8.90090901083868    4.52787372007907
H         4.43128240292193   10.30747965558650    5.51888018263692
C         6.00039045266620    9.60670038401881    4.21352306731014
H         5.73213875459824   10.28415592081067    3.40810287610928
H         6.35506242209233    8.67064621377537    3.79040935889765
H         6.80207886002728   10.05159947643767    4.79805649297562
C         3.91650609240889   10.42641481074628    9.18142878562152
H         3.20621152086012   11.19051093740166    8.85191641246112
H         4.87889461490054   10.90848705232042    9.38954028342985
C         3.39091512243947    9.68888177800781   10.39878623825360
H         3.34807258539670   10.36582032504828   11.24693970685339
H         4.04120206481745    8.84975448422529   10.64521770839948
H         2.39197705435489    9.30838216076045   10.20113191717316
N         8.29023916007040    5.30739024165793   11.50100124728729
N         5.86553068300515    7.62466077318738    8.41755330244446
O         7.74538796122637    7.27501280559811   13.08998782735652
O         6.67901204279169    5.00896525199899   13.44330895411363
O         5.09618015573312    8.44721674803137    6.15408380371134
O         4.06929049199142    9.52942118238038    8.07983557847763
P         7.10736069140262    6.05500851030425   12.30437926470608
P         8.15401278510813    4.62859280795864   10.05844839886904
P         7.43559761215253    7.22178128094429    8.58419183880545
P         5.49945111586213    9.01356163693302    7.59350887562219
Ru        5.01420124927003    5.82078669068765    9.29503057340114
S         5.46176284440255    6.84080309573288   11.46167644768722
S         6.92855861477306   10.34583953576409    7.63745270930497

