98
CSD_code = WAVLUA | q = 0 | S = 0 | Stoichiometry = C41H48N6O2Zn | MND = 5
Zn        9.58469738828570    5.54557690052830    3.92247963900337
O        10.85398234746473    9.66366970018686    7.23829735152927
O         9.78060491008887   10.82559411057098    5.78485515894782
N        11.04002992335899    6.98451915027603    3.95892342950903
N        10.65992762934287    4.45094872182202    2.56998911050345
N         7.97996318107739    4.33492300902407    3.52582628425545
N         8.38729682639575    6.82683368328157    4.98613081027315
N        10.22608443832970    4.47434865652849    5.69932634329810
N        10.22293715985355    9.78273712538439    6.20867445610005
C        11.04017040774130    8.17024693220102    4.62092313448530
C        12.23638844923638    6.88254636240332    3.32912741838443
C        11.93427503233309    4.70176613956441    2.19132073881887
C        10.29252121233059    3.29565436001750    1.96407187356350
C         7.97205687408049    3.19269859410004    2.79567343292346
C         6.74784091487787    4.45760954823054    4.07131095907280
C         7.11736107693156    6.54086595239056    5.36275796123818
C         8.75566217172376    7.95167228998215    5.65224621480347
C        12.28290725216301    8.88530507553630    4.36667769406176
C        13.02925130655358    8.06333637963950    3.57182450915497
C        12.41504531479914    3.65542278941309    1.31272975356879
C        11.38554681894194    2.77503322903065    1.16956198645557
C         6.67653582281653    2.55156487796359    2.87989526591474
C         5.90799552025365    3.34578681044203    3.67611432854281
C         6.65601470336905    7.50574916840969    6.33121137455169
C         7.68320738205215    8.38093113217110    6.53940923330622
C         9.98838811389106    8.57774249222930    5.44702590143232
C        12.66577617276625    5.81807549131882    2.55539906100451
C         9.04673420462415    2.70095237676903    2.07341554328414
C         6.35072210727874    5.47804562480599    4.91671391391502
C        10.13039245273083    3.15310765184272    5.76088683115306
C        10.41390862429764    2.42956293873354    6.90752445187793
C        10.81528987646336    3.11423896350686    8.04374189233446
C        10.91985476066617    4.49429173299353    7.97888141390865
C        10.61574229582473    5.12832273388727    6.78521255478132
C        12.69092676933683   10.27006754968910    4.75921040348657
C        12.05895723835242   11.32317071585412    3.84347899152932
C        14.38426673565377    8.29972784667016    2.99230356558069
C        14.29557294817303    8.78014226936187    1.54166139428304
C        13.76429172043812    3.62091358384674    0.67665971573691
C        13.81581557298277    4.51395548691013   -0.56555322592016
C        11.32651696448998    1.53933614255569    0.33521676071738
C        10.63687776868926    1.80872990818354   -1.00462036254590
C         6.31955599117266    1.25240606346103    2.23848838798456
C         6.84556902976969    0.06825790114130    3.05396063139983
C         4.49808658953352    3.13526943872587    4.11675789121600
C         4.44008036071104    2.50642733241873    5.51127968678317
C         5.31178092616249    7.46870205191570    6.97909070443226
C         5.26694387908155    6.45215966492201    8.12275946761212
C         7.65666000928452    9.47340212174617    7.56149317335085
C         8.33011263136829    9.04019818089902    8.86835531215810
H        13.67280578213837    5.87901972598946    2.17141022605925
H         8.89462650068502    1.77763816697505    1.53489315595638
H         5.33512341834583    5.43303308202731    5.27972550802553
H        12.46051169972366   10.49644704312569    5.79856148844870
H        13.77680168759488   10.34100001571292    4.66328384996849
H        14.91843566588499    9.04656333071945    3.58238283743726
H        14.96568727179009    7.37525526379710    3.03285368702002
H        14.51989181904200    3.95228255493738    1.39313738475731
H        14.00697014422813    2.59571337606298    0.38879610598054
H        12.33900998384475    1.17503170921892    0.14870405229695
H        10.78484619986195    0.75504212234122    0.86994519418028
H         5.23391929048211    1.17239695356277    2.15431614036905
H         6.73494912499664    1.21006498069536    1.22882586814016
H         3.96726442090302    4.08995464375659    4.12705029149506
H         3.98701846018149    2.47956428941343    3.40868874991943
H         5.05792167300766    8.45524731312749    7.37071055946376
H         4.55543084012170    7.20901515469640    6.23454308210895
H         8.10619980425629   10.39546354259739    7.19915047853623
H         6.61154163206860    9.70522657593002    7.77884325691105
H        12.45309538392332   12.30772848461653    4.08415097118484
H        12.28372191105972   11.10203024403491    2.80239457261568
H        10.97898216734082   11.35086427642679    3.96404062353505
H        15.29133662485503    8.90641942957898    1.12188287807955
H        13.74756575698384    8.06334662449480    0.93442132709688
H        13.77627432894546    9.73380797307147    1.49059099558684
H        14.81031489099015    4.49611950350778   -1.00634414556543
H        13.10157836577148    4.16809056622853   -1.30892645710577
H        13.56572077802553    5.54057428719256   -0.30876921561220
H        10.58117912815525    0.89629135235050   -1.59465857694734
H         9.62922083726150    2.18601071270370   -0.84640327582478
H        11.19127584594965    2.55330396492266   -1.57075296155456
H         6.58305310083766   -0.87157301410467    2.57292472786409
H         7.92786269544785    0.12013911965437    3.15050086638997
H         6.41522824334415    0.07717624687637    4.05282287571123
H         3.40742832060751    2.37994818537117    5.82929990327184
H         4.92195446150699    1.53141254480453    5.50635164863238
H         4.95391132381869    3.13445838238205    6.23562697050749
H         4.26863230516740    6.40901712322878    8.55305869906615
H         5.53704329060893    5.46093287979789    7.76500793946023
H         5.96753136716451    6.73195699800735    8.90576903978169
H         8.20994964580921    9.81573564432455    9.62115813892843
H         7.87892651374024    8.12212556295694    9.23946240720663
H         9.39409756079824    8.86760634563339    8.72655915241975
H         9.81325522539720    2.66087954534150    4.85314631016591
H        10.32061082015638    1.35478347596091    6.90944404090434
H        11.04197656131740    2.58444198221677    8.95730514667761
H        11.23016264963192    5.07175377352524    8.83532808594580
H        10.68692666808615    6.20161097672765    6.69298287073219

