91
CSD_code = WAVMAJ | q = 0 | S = 0 | Stoichiometry = C28H57BrP4Ru | MND = 6
Br       -5.44401173495846   -8.02055215549706   -5.61314003965384
C        -6.55626258793628   -4.80131479991412   -5.63916568566051
H        -5.63571985621914   -4.97657227506029   -6.18809170127315
H        -7.11453319642366   -4.01746269761703   -6.15099976156300
H        -7.14289960304903   -5.71529043370412   -5.67369468121819
C        -6.28188522956866   -4.37168769560143   -4.20627038256776
H        -7.24787888711757   -4.30024895615909   -3.68912973237566
C        -5.60175721452832   -3.00098562770185   -4.14033301553282
H        -4.77778076182285   -2.95845247552628   -4.85772440141737
H        -6.31009589919912   -2.21208695910267   -4.40082431431876
C        -5.05778354915651   -2.82714195223207   -2.73090410860345
H        -4.43287520943531   -1.93541948356180   -2.64455585513076
H        -5.88414309651582   -2.72969555139965   -2.02253931147738
C        -4.25910782696509   -4.09095534409889   -2.42687461615377
H        -3.34251141003202   -4.08108467803040   -3.03511942648254
C        -3.87127901519345   -4.24318789724326   -0.96404271863464
H        -3.10905859525938   -3.51269744598990   -0.69404335620106
H        -4.73092980758549   -4.08638827500880   -0.31533878551068
H        -3.47268834215819   -5.24189026564499   -0.78669468245116
C        -6.48218501689458   -5.84598955143615   -1.78951819617254
H        -5.93996774804899   -5.99213178194247   -0.84988684498043
H        -7.18244781208121   -5.01292710427026   -1.67208458292096
C        -7.18065190746685   -7.14259694177152   -2.17577816915959
H        -7.97368686982786   -7.41706663709251   -1.47231365589313
H        -7.60678436915995   -7.05988667210745   -3.18343384675352
C        -4.35817549279461   -8.41461548009114    0.26266101758373
H        -4.14189626152940   -7.35256896408530    0.16894250422831
H        -4.36610483636655   -8.67377072729778    1.32149153678466
H        -3.55456740921520   -8.96137757272489   -0.22329727785634
C        -5.70057966548563   -8.75117935651402   -0.36700026491182
H        -6.47165953649908   -8.13137133355573    0.11109511463423
C        -6.08904950510424  -10.21882660927809   -0.18205475878363
H        -5.24162004973339  -10.86321535703111   -0.43109383072789
H        -6.36917262168984  -10.41906915536897    0.85434045416740
C        -7.23699091077286  -10.49158464316443   -1.14173917446930
H        -8.12467648811258   -9.94101040454781   -0.82113549554536
H        -7.49444546145774  -11.55217599403175   -1.17576290106458
C        -6.78351388986940   -9.99845640764528   -2.51591097944335
H        -6.02737173293794  -10.69588034388303   -2.89881837302352
C        -7.91780534726117   -9.89873023401207   -3.52682905849590
H        -7.57648378687393   -9.45055295314213   -4.45739935916530
H        -8.73761189616950   -9.30160303685281   -3.13293996431281
H        -8.30021578906454  -10.89365496854049   -3.75033952906596
C        -4.77684902857282  -11.51101962939182   -5.10408536183765
H        -5.48317554194275  -10.71858128254113   -5.33305755599981
H        -5.06385163513046  -11.99270562492415   -4.17211394679541
H        -4.84301246121100  -12.25421637356757   -5.89793855597936
C        -3.35182902577328  -10.97659523927921   -5.03329257559717
H        -3.06800390918820  -10.64934380163036   -6.04149560417155
C        -2.39958542730455  -12.05774401940136   -4.51203882148473
H        -1.36788809774120  -11.84509979759521   -4.79686643143171
H        -2.66039449569256  -13.02862641058738   -4.93765123222619
C        -2.50664072426127  -12.08528530747956   -2.98772331504506
H        -1.65165547745714  -12.60561234426897   -2.55276702154206
H        -3.40398786193796  -12.63497986378919   -2.69692491891571
C        -2.58307669783362  -10.64327335734129   -2.46347582865723
H        -3.43087156563535  -10.54653123902364   -1.77082839685995
C        -1.32696696425378  -10.19389210860665   -1.72712430146357
H        -1.38828852915578   -9.12879155132270   -1.50266754124707
H        -0.43648689803661  -10.37749704828006   -2.32481031994806
H        -1.22480999028065  -10.73567541533067   -0.78717526418086
C        -1.40406336955070   -9.03611495795230   -4.64459256487349
H        -0.78619788344670   -8.58865822320880   -3.85951831267296
H        -0.87359986375806   -9.88946357763655   -5.07354140337102
C        -1.71447224273482   -7.98474799076655   -5.70419063243404
H        -0.81576600338320   -7.66532348017775   -6.24280319025991
H        -2.44418024861541   -8.36949830840356   -6.42685673373490
C        -3.15344364273369   -5.78677473143310   -7.46551350329112
H        -3.38798353682723   -4.94422005703402   -8.11533964698285
H        -2.36297748039688   -6.36631139166074   -7.93787341846294
H        -4.03979359923479   -6.41272420394828   -7.38621392848114
C        -2.70695968087430   -5.27599587940149   -6.10139187464411
H        -3.48238115897149   -4.60651085731577   -5.69882606623983
C        -1.38510547783370   -4.50881774305391   -6.16061787114254
H        -1.52363138882004   -3.53256047061124   -6.62997633483831
H        -0.66206372202655   -5.06847371386887   -6.75912178963314
C        -0.87611115944954   -4.38076029403131   -4.73298274787424
H        -1.52449060673369   -3.70365700669770   -4.17062769192906
H         0.13742943587343   -3.97509827920384   -4.70055500032903
C        -0.92179337239755   -5.78114913697422   -4.12082382465053
H        -0.09124328086426   -6.36471404731878   -4.54177636893675
C        -0.77396112915665   -5.77108292928043   -2.60777710961708
H         0.20446809635312   -5.37960829584161   -2.32901222327739
H        -1.53774480740075   -5.15145267936811   -2.14814774025547
H        -0.87304888732376   -6.77666108178667   -2.20366606433002
P        -5.23343900358697   -5.52026763475109   -3.12062635090241
P        -5.84151963467778   -8.41651212521167   -2.21626154340546
P        -2.49103805382811   -6.58583554029733   -4.78693597046961
P        -3.03118108798948   -9.52150852934042   -3.88795014274989
Ru       -4.16239874330160   -7.53234120332889   -3.52120721681482
H        -3.32716790736496   -7.30322801624513   -2.26454352844252

