103
CSD_code = WAVPER | q = 0 | S = 0 | Stoichiometry = C39H56N3O4Rh | MND = 6
Rh        6.70280527250639    1.40431938611365   13.91197092147091
O         8.46831937683050   -0.54134723341133   12.43692082746932
O         5.33334540432285   -1.56494606576519   13.08046964277819
O         5.29311524614906    4.38377659815335    9.76798638899323
O         3.37039670696929    3.80534580358142   10.55679077878047
N         7.36115437693114    1.93528387348450   12.04473877686402
N         4.82984123599466    1.10048917074713   13.02952517203774
N         4.59185452566089    3.71272000509771   10.51683749660470
C         8.70530986800212    1.71352143402021   11.67935442160476
C         9.23687365643448    0.42737580186159   11.86911495719295
C        10.55331402716463    0.15743370764449   11.47154032199874
C        11.28535758440436    1.19478725420892   10.91520281633482
C        10.79021556923096    2.48584339025735   10.74983437685261
C         9.48674541368530    2.72931329831464   11.13909711206776
C         6.61674104783959    2.64558945662253   11.25516012771160
C         5.22288110157997    2.80847056045509   11.38599936410662
C         4.40404353484048    1.97973051584861   12.17224904572446
C        11.14525734943523   -1.23117515864724   11.67450190244538
C         4.17652187621870   -1.12730821132558   13.66223298215652
C         3.30118829079783   -2.00976874613529   14.30047332042320
C         2.13762191921007   -1.48123070631532   14.84915431561477
C         1.80843406185085   -0.13330661185592   14.79446985458201
C         2.70173744240544    0.72483758261886   14.17148749394104
C         3.87883425361483    0.24245165386238   13.62163076693853
C        10.30012812999666   -2.25749868020556   10.90911916265606
C        12.58787696440299   -1.33857269768754   11.17156392237768
C        11.14225882413101   -1.55962367565572   13.17468635834037
C        11.68671635202808    3.56179889157906   10.15697736056805
C        10.98639762095326    4.91961906466348   10.05595492101064
C        12.92752274566826    3.72859684050709   11.04554510062598
C        12.11072665646746    3.13644231514597    8.74451098474458
C         3.63219776850622   -3.49383598632936   14.38924745499432
C         3.73771551165929   -4.07245097022412   12.97199009025766
C         4.96851852822733   -3.66436723825246   15.12587225780372
C         2.56965526773689   -4.29341239467067   15.14898274107668
C         0.53049970492410    0.43551790222168   15.39201119753987
C        -0.28623438955992    1.10252836621291   14.27636799062041
C         0.89792113800040    1.47527176243679   16.46066535406089
C        -0.34426998748097   -0.63483368450862   16.04951938656868
C         8.79388179058896    0.78325532563637   16.12756107621129
C         8.66976189327066    1.59516279517702   14.85723580772818
C         8.05202416452814    2.83309245835317   14.77273637862159
C         7.33743954400779    3.54625772265903   15.89433173906144
C         6.43331806053758    2.62358710087762   16.72891155472384
C         5.79880432428134    1.54197897362081   15.88365009248636
C         6.33122124578057    0.27697290655157   15.70934800080240
C         7.63846108829022   -0.21902327657425   16.28016055822802
H        12.29704766500425    1.00009016744370   10.60763350073178
H         9.05191466459523    3.71118473303145   11.05192062880181
H         7.05287857301275    3.11232569393535   10.37284918147461
H         3.33724783683538    2.04747192328761   11.95908003514548
H         1.45958291973024   -2.15396501559021   15.33867082893319
H         2.51336330230675    1.78664346312727   14.12388430264578
H        10.71864851047892   -3.25338586105187   11.03605695309210
H         9.27839376020927   -2.26397225524316   11.27309702154384
H        10.29124444317927   -2.01820564148418    9.84768968753882
H        13.24748374552682   -0.66181738195286   11.71047180264745
H        12.94626526487862   -2.35282435877793   11.33491774664012
H        12.65075092359846   -1.13113537003237   10.10578532501037
H        11.70769504949778   -0.80929487379981   13.72496910968725
H        10.12821320462817   -1.58984711627539   13.55924481108636
H        11.60208868422577   -2.53064679251754   13.34318017434667
H        10.68908373960189    5.28200005224946   11.03748754304011
H        11.66956858184482    5.64780415656819    9.62399812345769
H        10.11010969246324    4.86327815170916    9.41475816599197
H        13.50590733826001    2.81048205709006   11.09718167548940
H        13.56887837404938    4.51221354671861   10.64829915123248
H        12.63240496337748    4.00354705852314   12.05619787696751
H        11.23410327736722    2.99756715613108    8.11559386458948
H        12.73914209406853    3.90276902675614    8.29610197302096
H        12.66957123661370    2.20496918392184    8.76085491957943
H         4.53601361551649   -3.59082331118697   12.41749678054245
H         3.94708778684993   -5.13862257652505   13.02033838663951
H         2.80179332477228   -3.92717018325656   12.43629248511989
H         4.90870428156065   -3.22651456785549   16.12099743770517
H         5.20389211593700   -4.72119791980667   15.22796095745248
H         5.77376984321842   -3.18637999903629   14.57808320570867
H         1.60402684163035   -4.24056834226572   14.65158550344795
H         2.86933632032056   -5.33880033603094   15.18308976118929
H         2.46701467982360   -3.94239677988416   16.17343020484995
H        -1.24215137243471   -0.16997683471479   16.45145185119688
H        -0.65202063648351   -1.38686600918956   15.32700432170323
H         0.17867398525424   -1.11914839238527   16.87099941481385
H         0.26310484822947    1.91668630610970   13.81238521396027
H        -0.53234611837100    0.37534712277794   13.50556645513209
H        -1.21285484796493    1.50516801373986   14.67949844852984
H         1.44701990458926    2.30872891076728   16.03160628716593
H        -0.00344723754324    1.86878437636357   16.92519202901892
H         1.51423143728474    1.01944100817279   17.23326576139591
H         9.73424492638080    0.23008523085505   16.09952131526963
H         8.84100526754819    1.45480963483956   16.98478423333271
H         9.45212819285805    1.39228592860238   14.13011211960356
H         8.38726494524656    3.50689021476908   13.98282327348801
H         8.07933717767652    4.03190601671280   16.53702723550489
H         6.72522058890531    4.33794375590936   15.45380651306851
H         6.99582997397676    2.16324570536461   17.54101557872108
H         5.64490339490161    3.22579787684204   17.18392685478020
H         4.72440511439584    1.65198589028916   15.74730598286705
H         5.63666777157779   -0.53058377736347   15.48873388052369
H         7.90044689964816   -1.14449390086296   15.76067711884084
H         7.49328703832812   -0.47328698642281   17.33510067483398
H         7.74574091840978   -0.10492153389051   12.95960545881794
H         5.71952908321102   -0.83677682586949   12.56809817686593

