51
CSD_code = WAVPAL | q = 1 | S = 0 | Stoichiometry = C23H19MnN5O3(1+) | MND = 6
Mn        9.66146777722246   -1.24077093216754   15.65343400023729
C         7.20416358369249    0.74768722398317   15.88220345109928
C         6.08151730794864    1.76901133087210   15.78142349659096
C         4.78177400967373    1.35825260623075   15.49419656058642
H         4.55405101048402    0.31002476060030   15.37149530649714
C         3.77319775514834    2.29193875381971   15.33052843817322
H         2.77015621766389    1.95670288050242   15.11906065114423
C         4.05232759426791    3.64506754323342   15.42201637289850
H         3.26402126683891    4.37069421918986   15.30095521673148
C         5.35578585267718    4.06126892179536   15.63245294191514
H         5.59322484854120    5.11304528508579   15.65766578041793
C         6.36888967019172    3.13166448531984   15.79383445278222
H         7.38524633515294    3.47839916471875   15.90241397497322
C         7.25994686698618    1.17212714802959   13.39083560140999
H         6.42097243749868    1.83497079853920   13.37807160368662
C         8.04824607355473    0.75000176784908   12.34496893221036
C         8.98460015931512   -0.10690147793715   12.94018783664663
H         9.78630960570895   -0.64722193874730   12.47001702682754
C         7.94268798417932    1.12062639262218   10.91139200178576
H         7.03815841461845    1.69426782123544   10.73133658790749
H         7.92801420833932    0.22823916612876   10.28950653480859
H         8.80158380315787    1.71959329838288   10.61289752774435
C         8.28258978793349    2.05178428104510   17.79054111209457
H         7.43364201362937    2.66231276509421   18.01727172087261
C         9.49902034604436    1.96238519227560   18.43152194757430
C        10.18643597337864    0.95753795502419   17.73515445986357
H        11.17695477225864    0.58209699849861   17.91526614522111
C         9.97970314858677    2.74561924346483   19.59729189416610
H        10.79672055219042    3.40115771979315   19.29992058228148
H        10.35389333083012    2.07999334463837   20.37218268115672
H         9.17741778682615    3.35243036205695   20.00704145215543
C         6.81248656198168   -0.60655134336390   16.49725345056010
C         5.72791480495306   -0.71562284038592   17.35902586736928
H         5.13173248016877    0.14942298394299   17.59955983042860
C         5.42912452981296   -1.94782144054282   17.91639629961082
H         4.59164612249319   -2.05335504590974   18.58747316617911
C         6.22856463642399   -3.03093800551777   17.58917997921789
H         6.02061876263827   -4.01718772466659   17.96982727510692
C         7.34102629044545   -2.81822865383988   16.79545110784533
H         8.01159310611699   -3.63676522959805   16.56677853440080
C         9.74399657391007   -2.72354534067713   14.65111266577430
C        11.32331668215553   -0.80824237997567   15.13046292133917
C        10.33366190136024   -2.13574070840699   17.05252054583485
N         8.77299614052348   -0.19581101697718   14.24349045536523
N         7.72173892301863    0.58674254131562   14.52494958437719
N         9.43943481075225    0.47506786523652   16.75317027237931
N         8.29643458972942    1.17703819409249   16.75773888908420
N         7.65811931264070   -1.62333243029965   16.28645108939094
O         9.83041064068829   -3.67313320717206   14.02201730989687
O        12.38828948252771   -0.56367955325203   14.80074293746170
O        10.76717315311919   -2.71672374518097   17.93671152591659

