55
CSD_code = WAVPUH | q = 0 | S = 0 | Stoichiometry = C22H29ClN2Pd | MND = 4
C         6.09426840096834    8.95953501421686    2.50944584881395
N         6.53701132234293   12.02454758784249   -0.09589856117597
C         6.76172233005335   13.68166589141826    1.63193534879875
C         7.00243441975190    7.02405987868745    3.58921957461409
H         7.83144607801573    6.37229284602708    3.81252130013756
C         6.40202046163164   11.58740131254929    3.61291889856745
H         6.72927002412365   10.71595727353496    4.18511589321764
H         5.37663309326294   11.81394771636103    3.92575052852246
C         6.57309245392723   12.35635656779093    1.20902786485579
C         6.68090388085741   12.96552124582971   -1.01622307567553
H         6.64258155917401   12.63033498830247   -2.04643211268253
C         7.28567897643653   12.79956324338111    3.89900230499768
H         8.31889865645400   12.57646999540336    3.62162565319693
H         7.26600795122752   13.02782294497888    4.96568507817911
C         6.40820812942577   11.26178916201968    2.14299894217382
C         5.76060520976455    6.75243391649343    4.13092811169655
H         5.63050918187803    5.89720862601292    4.77702414310777
C         7.18837710071579    8.11535543593284    2.75376039847366
C         6.79636264322605   14.00127428088020    3.09605137998647
H         5.78593161432523   14.26984351312006    3.42333221126709
H         7.43778060879435   14.86743142044205    3.27022204608878
C         4.67583674080132    7.55594380894497    3.82827667477819
H         3.70918810883062    7.30178242715856    4.23091046559783
C         6.91084335903702   14.65498048153485    0.65765753584854
H         7.06191478927118   15.68526046977104    0.94671642773210
C         8.51896701631467    8.39822799456147    2.09021497333634
H         8.31525228263437    8.93320538318992    1.13960125372907
C         3.63684114694881    9.53376965578477    2.62095694285760
H         3.95817346869880   10.58079183955905    2.58768065674858
C         9.27888950496565    7.11959831518427    1.73826014501094
H         9.67933792735792    6.63737359937742    2.62701939137070
H        10.11328246683948    7.36036547946817    1.08365416646212
H         8.62707689371378    6.42141627703777    1.21986445469130
C         4.81872606188330    8.67563793857003    3.02356399133157
C         6.86945215598405   14.29801836927088   -0.68396642185747
H         6.98593828521884   15.03990021368731   -1.45747117187972
N         6.27617943032164   10.06512495224922    1.66551096072817
C         3.17731997650535    9.14601803283050    1.20854080447462
H         3.96338243742184    9.35812967974549    0.46293291531340
H         2.28969590148048    9.71346888313657    0.93721184646910
H         2.93989315247938    8.08546212957200    1.16818736650101
C         2.46398987301426    9.44508389758045    3.59686887700101
H         1.97642619988467    8.47574560867439    3.53561902212906
H         1.72521501937054   10.20447117579318    3.34910582245876
H         2.79559117110972    9.60963857284135    4.62011867265150
Pd        6.29629802884116    9.85688024327753   -0.30914858008614
C         6.13447872583686    7.80916355746698   -0.45788826191017
H         7.06048224121887    7.42963647438934   -0.90833028578093
H         5.30938629287833    7.56086512305427   -1.13470182767548
H         5.96926933677162    7.30905895908806    0.50184948518761
C         9.38689720717967    9.29807365388668    2.97441857110345
H         8.91456038250164   10.26408916194417    3.13329204263517
H        10.35339221755188    9.46429333896480    2.50383166971769
H         9.55020231469663    8.83015742616360    3.94385903120527
Cl        6.32917578607755    9.90615401501453   -2.50992939504213

