63
CSD_code = WAVPOZ | q = 1 | S = 0 | Stoichiometry = C28H25Cl2N6PRe(1+) | MND = 6
C         2.50855311575231    2.65257734574081   16.74755942456977
H         3.27123749063214    3.40613247981364   16.97924249530039
C         1.37780315541880    0.27906659948232   19.07831397822383
H         0.72412757042468   -0.53935293419723   19.30587482848163
C         2.34887272263345    0.88083498060940   19.88666485327010
H         2.61157771878296    0.61341848806488   20.88818800572446
C         2.89063516972410    1.88221912079647   19.12310446605777
H         3.65654372035413    2.59822670380981   19.34087125842273
C         2.89122913110320    0.22176268216821   14.25304839467919
H         2.47730438856117   -0.61555359536034   13.72672722838730
C         4.13470010846424    0.85092547280901   14.07982714720151
H         4.89584626167889    0.59198889084761   13.37475961723509
C         4.16295100578553    1.86163212653161   15.00272408018727
H         4.91110465403264    2.59399879893845   15.22706538474014
C        -0.73459936349552    3.45249979311180   15.65747240995337
H        -1.71281251277154    3.10925022634720   15.38077013852897
C        -0.21966659750122    4.75424874666486   15.66640439379786
H        -0.72973797163145    5.65113212571092   15.38495004374889
C         1.07261015650351    4.63534723179543   16.10990030946612
H         1.83067169696943    5.37276703433525   16.27758499083536
C        -1.93318560727002    0.63858018884836   18.79695424489359
C        -1.36956273968588    1.87081259291162   19.12408395658503
H        -0.91591001504261    2.46688105862073   18.34282911443557
C        -1.40633247924494    2.33960127256854   20.42315725426656
H        -0.97237915667396    3.29868770401668   20.66516920941401
C        -2.00692718613028    1.57974190310543   21.41517390981669
H        -2.03434429646591    1.94250120104203   22.43098612958636
C        -2.57966569939447    0.36034715640912   21.09666465941289
H        -3.05838156179858   -0.22782463886962   21.86456064217022
C        -2.54737190084179   -0.10988531261693   19.79437817414144
H        -3.00328522117430   -1.05869751543688   19.55485113996719
C        -3.21296780663361    0.99806088249505   16.27023397907453
C        -3.89829580227915    2.02251018193841   16.91563989582501
H        -3.65663655349396    2.28083441995210   17.93596370819558
C        -4.90056444737744    2.70958070103804   16.25164225164871
H        -5.43115508902821    3.50053846888614   16.75969827652635
C        -5.22541934917117    2.38369936406665   14.94541669038596
H        -6.00765369406758    2.92212336706264   14.43284403317821
C        -4.54748222266419    1.36183640180751   14.29870492794564
H        -4.80040439283426    1.10212717549948   13.28220640487831
C        -3.54506356214805    0.67210784679159   14.95455812886897
H        -3.01026707299484   -0.11979598457089   14.45130491789042
C        -2.45382950315811   -1.63588113332392   17.16039118632018
C        -3.66166901755431   -2.05878126730284   16.61654479855250
H        -4.30871275684843   -1.35918600737246   16.10949891235294
C        -4.04403251194219   -3.38480833196507   16.73130034527099
H        -4.98175277014240   -3.70678423031659   16.30429161039329
C        -3.23223349651936   -4.29431470085525   17.38700351723996
H        -3.53209076192294   -5.32792042988778   17.46611662047172
C        -2.03506135493088   -3.87435547066318   17.94606676938171
H        -1.40251739150788   -4.57852682694895   18.46491596923918
C        -1.64830863639616   -2.55318341500933   17.83632392159996
H        -0.71570728371832   -2.22282093695666   18.27117973100795
N         1.32985377570747    0.87461520129490   17.89977563375968
N         2.25661485572691    1.85439836303174   17.92503797392441
N         2.21795725114476    0.81152822504571   15.21261773215938
N         2.98393317868637    1.81307959074810   15.67702362872000
N         0.18427099303785    2.59702071398294   16.07229167232621
N         1.29053565931709    3.31817200202048   16.34667361491586
P        -1.85924009070137    0.07891481609858   17.06261258738071
Cl       -0.50121720168352    0.47996751386952   13.95258708365561
Cl        0.90386575113614   -1.71991572640882   16.19437777426969
Re        0.29944554726349    0.44299129733425   16.06189381913909

