140
CSD_code = WAVSOE | q = 0 | S = 0 | Stoichiometry = C57H77N5Ti | MND = 5
Ti        9.53394909320985    9.64091586600033    8.04722218953595
N         9.36732677449556    8.68340138776900    6.65627187317154
N        11.59294226630839    9.84945937541326    8.26774829097889
N        10.32872051085412    8.61459586285805    9.63827244049023
N         7.58037392137862   10.05420135372027    8.58115043890577
N         9.03410921508871   11.65121379724711    7.97495688851039
C         9.31672694499999    8.02152377901824    5.50013503179350
C         9.62562026379168    6.64379818877260    5.40797650386904
H         9.91182116275285    6.11858148200076    6.30824194021609
C         9.58178774993708    5.97953453981529    4.20400104794560
H         9.82503672783007    4.92492520694214    4.16967535828114
C         9.23654342159925    6.63131396626571    3.02311626741221
C         8.93205770032324    7.98562426414564    3.09633400446141
H         8.66058816192455    8.51587822297287    2.19196152587913
C         8.96513281364699    8.66637058239314    4.29267177728187
H         8.71557292993384    9.71707076909069    4.33403773882130
C         9.21223617830342    5.88943908480489    1.71981825121255
H        10.22402947297098    5.61693764477721    1.41585465485666
H         8.77322437358750    6.50015132878050    0.93424774076941
H         8.63457182702368    4.97009171629264    1.81012150671848
C        11.52525891842301    8.98893577385518    9.25022879067345
H        12.44096863201761    8.57339062869426    9.71079483219191
C        12.84639787360921   10.21446682768251    7.73395015922725
C        13.48395891440483   11.37613947816328    8.19291642160292
C        14.73452713464735   11.69993556018333    7.68527838686935
H        15.24474862291899   12.58170708986125    8.04195210109344
C        15.34357110267339   10.90292750935829    6.73545252090346
H        16.32179081347493   11.16287322575231    6.35859013297241
C        14.69652204773103    9.77522439661798    6.26621499962035
H        15.17720211726472    9.16240147394356    5.51963224345488
C        13.44626500760455    9.41596187078258    6.74729627269578
C        12.83318893819362   12.25293806843711    9.23948268158184
H        11.78622033323659   11.93521224543701    9.34519697814143
C        12.83914889370642   13.72515752182455    8.82573975984913
H        13.84980023812165   14.12555026001939    8.81111790187213
H        12.25419538838124   14.31639331646341    9.52700897431686
H        12.40231356870702   13.84484131459745    7.83791697859449
C        13.54392798660951   12.07818042647673   10.58475843124424
H        13.55718598400450   11.03204448017375   10.88383268120316
H        13.04342264898432   12.65549852680340   11.36023659106987
H        14.57446029856645   12.42020119159331   10.51492647643600
C        12.73356554195802    8.19001497891085    6.22577223966574
H        11.67171333344029    8.28196591752510    6.49846373878918
C        13.29386371147399    6.92212734973015    6.87773854247987
H        14.36020950216631    6.82847926501023    6.67868831727541
H        12.78758984474193    6.04634515873963    6.47833860679293
H        13.14568079807354    6.94281771967392    7.95596945265591
C        12.81713374234114    8.07914190040987    4.70249871670875
H        12.52401102003196    9.01750123649078    4.23867435290291
H        12.13715840507305    7.30474552157067    4.35624116428568
H        13.82233062063740    7.82441879538565    4.37444398718873
C        10.09629488013570    7.79276176761202   10.75166248937199
C        10.37915885243816    8.24211115241045   12.05544410129509
C        10.00705369893268    7.44153852533860   13.12527425255389
H        10.19380723004411    7.77070017269749   14.13494522434997
C         9.39294531470774    6.21859463522026   12.92717580893810
H         9.10566923551234    5.61690933344697   13.77672381940267
C         9.15786597258435    5.76522047123125   11.64364987583645
H         8.69406371610669    4.80201387047229   11.49911352160985
C         9.51526158573902    6.53139169274865   10.54521529732384
C        11.04068022833946    9.58989628331463   12.27418315747593
H        11.84210730609654    9.69809397120476   11.53694412539385
C        10.03602657180112   10.71946918649266   12.03260781490562
H         9.67427721236686   10.69754457662306   11.00136657012214
H        10.50753551450961   11.68311443217072   12.21249547013977
H         9.18658949795167   10.61818198704527   12.70445150754507
C        11.67940218185214    9.74984749608326   13.65305806404853
H        10.92416927212720    9.82666907192489   14.43194612987179
H        12.27368622244566   10.66167246945768   13.67388885765086
H        12.33460850741691    8.91103168167395   13.87731374329898
C         9.28281491306944    6.04220001416360    9.13437092219736
H         9.95907712207221    6.60434678470706    8.47213498202917
C         9.57642103135067    4.54930634642868    8.97651151099408
H        10.54948477611266    4.30055427928272    9.39533827372014
H         9.57643635208971    4.28318399699667    7.92169566246429
H         8.82038418595538    3.94335654220126    9.46993260858082
C         7.84824071250567    6.36240724902022    8.69920524127610
H         7.12889524172265    5.92044808511492    9.38720586444540
H         7.66463757878368    5.96696074359627    7.70219228604439
H         7.70672308946594    7.44624926965057    8.66958490160122
C         7.79856646818973   11.30154413700655    8.24222407992675
H         6.96442899380410   12.02222223866923    8.16426497743110
C         6.25057552449065    9.59299940981329    8.69851233661627
C         5.72996206773275    9.31350051071884    9.97044523364482
C         4.40511478519390    8.92206324130950   10.08723755614967
H         3.98950466644378    8.72454363004218   11.06339690200802
C         3.60272697277071    8.79660469367786    8.96947892302072
H         2.56690552816438    8.50958220920429    9.07522415779117
C         4.13416919469641    9.02733877036781    7.71565095054978
H         3.50522882241812    8.90861096546323    6.84654339710785
C         5.45787749615391    9.41283334166412    7.55442244193834
C         6.59602978819437    9.47945543667172   11.19702704872427
H         7.63971090082366    9.53565889982854   10.86169191405527
C         6.22665753060829   10.78446421842286   11.90824287687253
H         6.36740279256664   11.63461604584933   11.24404837050349
H         6.84189462348792   10.92904173153375   12.79423005767818
H         5.18316586406141   10.76338982452532   12.21652889929888
C         6.48313391225370    8.29283289659584   12.15317687737640
H         5.50280853724329    8.25113278291430   12.62129679337125
H         7.23107784497646    8.37679502151474   12.93876703384174
H         6.65809332547727    7.36150830303151   11.62082847967003
C         6.03366835152589    9.58011823717808    6.16642422779829
H         7.12344305050219    9.71060294948831    6.25559378838908
C         5.79166501675301    8.31690296946451    5.33581204346404
H         6.19292452200334    7.45051770711690    5.85610070838891
H         6.29928446106257    8.39981000022017    4.37837910126106
H         4.73200282879792    8.15767704513858    5.15216538274504
C         5.44361112478261   10.80564996622844    5.46411948343243
H         4.36190913176086   10.71929140924618    5.38310508341527
H         5.85635772855028   10.89617268162374    4.46151816535373
H         5.67190182896222   11.71682771498667    6.01496224867564
C         9.38640750433813   12.97686463898267    7.69778407623081
C        10.03454897194959   13.26256288062356    6.48284313178723
C        10.38652700794619   14.57297235100681    6.19773329600017
H        10.87061812951465   14.80396123870540    5.26106461473041
C        10.11364687466287   15.59601962036110    7.08627355966602
H        10.38245000412579   16.61343077241385    6.84425351165366
C         9.49805218971812   15.30722496169415    8.28719860685997
H         9.29410088739830   16.10989439642454    8.98002879627706
C         9.13319636323630   14.00952713112697    8.61929741926081
C        10.28381527361983   12.17754246894603    5.45881557047273
H        10.10374563034937   11.18883753925191    5.92659204588179
C         9.30036589607136   12.36750812085813    4.29767517269437
H         8.27479100691492   12.25107952420505    4.64487536404370
H         9.49376091642928   11.63937301025399    3.51334693996635
H         9.40527260975456   13.36368893576166    3.87099995346187
C        11.72367134831065   12.19120047755978    4.94101300852044
H        11.92876164278076   13.08566813981902    4.35691393062205
H        11.88888931525454   11.32641366687341    4.30249461348715
H        12.42947930865956   12.14294981566268    5.76665170561508
C         8.50822953570956   13.75370950287680    9.97455577526042
H         8.38825305186322   12.67359656895269   10.11608900637768
C         7.12710062438216   14.40695948278129   10.07588115850545
H         7.20275638180034   15.48429815841475    9.94882567810627
H         6.68503355633553   14.20741237131482   11.05052902404069
H         6.45657994082337   14.02390621564510    9.30860697373433
C         9.41357740739264   14.26281824168569   11.09970506454812
H        10.41038858740623   13.83816330997717   11.00420184384054
H         9.00314864407694   13.97570677492520   12.06603098578482
H         9.49980620731534   15.34615715580788   11.07649864209860

