102
CSD_code = WAVSEU | q = 0 | S = 0 | Stoichiometry = C45H51N3O2Ti | MND = 5
Ti        4.53813781832935    6.05217017211287   13.82289519195418
O         5.23005447015308    5.75493995441817   15.51696936655243
O         3.00587201249820    6.30619013028694   12.84801179301841
N         5.89445063848981    6.02365028487898   12.78448646959123
N         4.28601191231650    4.02281508989789   13.78383709074676
N         4.54059701840973    8.06093655848516   14.06229789674427
C         6.69753466058515    6.05574289295985   11.73413523027837
C         6.49698259622872    6.95239107032758   10.65325286444971
H         5.64893359375815    7.62754007108389   10.69571777454129
C         7.35133432023124    6.96835942010214    9.57605048909923
H         7.17261869391328    7.66610544559479    8.76758556408187
C         8.43841269045639    6.10136467655887    9.49476847094947
C         8.64853434372478    5.21480234065533   10.54764250334926
H         9.49040528742686    4.53513711282857   10.50470589437390
C         7.81810624297612    5.19167807698210   11.64331055113422
H         7.99758328098425    4.50565595803764   12.46317018684072
C         9.33981901513328    6.10756236318394    8.29514824941233
H        10.32773910908101    5.72949273690888    8.55040858392084
H         9.44238507058423    7.11362498890690    7.89248727491353
H         8.93002220258959    5.47300893333419    7.50669624942305
C         6.24228230700582    4.96214468977090   15.66009348831274
C         7.31531163779209    5.31867234597952   16.50733285925583
H         7.27564559552937    6.29263314671759   16.97664915328234
C         8.37826590665235    4.47249089811354   16.70708848800727
H         9.19481134305173    4.78035181551836   17.34429842328892
C         8.41514068541155    3.21563653084720   16.10076432921343
H         9.25403711376854    2.55844018776621   16.27046866094009
C         7.37722368262995    2.82423766294196   15.29074087023552
H         7.39537647652134    1.85271329092099   14.81534166310710
C         6.28827427710987    3.67324367112212   15.03994476143682
C         5.21411875650971    3.23688128708010   14.20336513905957
H         5.18836696308871    2.17067554219786   13.93968529322941
C         3.22485465387962    3.53807655314963   13.00390274485645
C         3.43004959083673    3.05352218872375   11.70397985642148
C         2.33240386014129    2.57295771872762   11.00047127903400
H         2.46961480529139    2.19540251403350    9.99847172063204
C         1.06933427886535    2.56542775561703   11.55971789639590
H         0.23281421194543    2.16963671805563   11.00270784694874
C         0.87273688558910    3.08516928348108   12.82656289171464
H        -0.12177630828423    3.09372681255157   13.24619906592357
C         1.93582103186160    3.59159114596002   13.55797714697602
C         4.78295061108225    3.13159747862991   11.03422763816519
H         5.50736847289400    3.56360338459440   11.73324527191516
C         5.28546794945896    1.75108350980968   10.60718697265164
H         5.32952849747648    1.07460496453543   11.45877488530101
H         6.28334300012287    1.83856974629415   10.18416332924861
H         4.63243380150610    1.31135246434011    9.85691222075385
C         4.70307026012009    4.08250579857884    9.83645603608184
H         4.02044238362642    3.70733304671717    9.07707494963009
H         5.68857996949223    4.20314702758246    9.39314583860834
H         4.35962832821073    5.06137977577129   10.16977547400156
C         1.72404901916435    4.18057245292890   14.93675948892908
H         2.65036355388008    4.69372523198041   15.24373371058924
C         0.59918210817914    5.21845925665623   14.92436405862392
H         0.80607583640330    5.97868610303224   14.17204002629379
H         0.52070058834659    5.69963002689729   15.89760316848249
H        -0.36139451852916    4.76089009599318   14.69929897377691
C         1.43786749669042    3.06964739949386   15.95089415542064
H         0.53014347826787    2.53212870317452   15.68354506346654
H         1.31078791811896    3.48788178820158   16.94752457409591
H         2.26151745754488    2.35839093985127   15.97933484430738
C         2.89113241815741    7.16656014845826   11.88766573700960
C         2.15396027591792    6.84327746468140   10.72742015754345
H         1.73958386945583    5.84591721417388   10.66350418521754
C         1.98226192784107    7.75459678731243    9.71418130194161
H         1.42694470040730    7.47414192270614    8.83087296931287
C         2.51249346619994    9.04176735147638    9.81432529950664
H         2.36612906066915    9.75013919673678    9.01363586262952
C         3.21895733030595    9.39795265616227   10.93704174177101
H         3.63575929454289   10.39224108066016   11.02485184959329
C         3.43612995094019    8.48571463814264   11.98204122139096
C         4.17666684359346    8.88173864826182   13.13846354082902
H         4.42666513846215    9.94739256175841   13.22823310661302
C         5.22893361976291    8.52297413669196   15.19780037498024
C         6.55309352009529    8.97590153380729   15.11767999410804
C         7.16619995590102    9.42311236255174   16.28196882514488
H         8.18748503396197    9.77033785034831   16.24269003088376
C         6.49254855441225    9.43636458350547   17.48771964271713
H         6.98171250920360    9.80519589617867   18.37732860799654
C         5.19534854792159    8.96092610248338   17.55901563176312
H         4.68304323234833    8.96280218428161   18.50896201794666
C         4.55212979067570    8.48426977089441   16.42732921220632
C         7.33872432560108    8.90714582490517   13.82827993580388
H         6.68728300407144    8.54171027667043   13.02736092521389
C         8.46943930342626    7.88531856879976   13.97973746857424
H         9.17341099636333    8.18576408172454   14.75266051868489
H         9.00360753981764    7.78207200196124   13.03812258580301
H         8.04648539206445    6.91511642712139   14.24070176819118
C         7.88227332972256   10.27801317301004   13.42076505060926
H         7.07595950790197   11.00468193199800   13.33953737383383
H         8.37826056437783   10.20410629212316   12.45592626707160
H         8.60189553818135   10.64745014215849   14.14742802004403
C         3.13707901522281    7.94977904292745   16.49790427828242
H         2.92085492881757    7.41387510789054   15.55864160605489
C         2.97386952698261    6.95299352369835   17.64714909960917
H         3.71978781288999    6.16452565360545   17.55854220688481
H         1.98265030677127    6.50404651713270   17.61661531260311
H         3.09062076090554    7.43699393477550   18.61390219083503
C         2.14284271042295    9.10750969367234   16.62665051140821
H         2.32995932936473    9.67067610354443   17.53892186291514
H         1.12190302065633    8.73161652839960   16.65585128443671
H         2.23506510043315    9.78599185089742   15.78016846787434

