57
CSD_code = WAVWAS | q = 1 | S = 0 | Stoichiometry = C18H28CoN6O4(1+) | MND = 6
Co        2.10438310708449    1.08231460084710    6.71154434236016
O         2.92347423991950    1.65625042587322    8.33777528582801
O         1.14284870902284    2.78102080771673    9.03502485286800
N         0.48822613315204    0.53367312847237    7.66636817887700
H         0.24233455630122    1.29782186508011    8.31477219333249
H        -0.28329071185058    0.38985505054722    7.01446349581998
N         2.73910559278437   -0.73025574788865    7.08162332120606
H         3.15320723407900   -1.09484905779364    6.20996986680957
H         3.45453119385327   -0.71849417579958    7.80896896660077
N         5.17899428155905    3.88580534894828   13.80386925182159
H         4.70184967601293    4.34600497046718   14.55791741053507
H         6.07971323835214    3.48508435975857   13.99385656386006
C         0.74515732978585   -0.70759784933018    8.41077194908806
H        -0.18242292276436   -1.21565232618467    8.68931307804917
H         1.29706443759824   -0.45673262729284    9.31998741917968
C         1.61437733496128   -1.57577911682436    7.50752964828644
H         1.95490336168416   -2.47948960255313    8.02082798790038
H         1.04585657281473   -1.86646628083410    6.62069934519898
C         2.31471145597874    2.39384258131924    9.19980389475624
C         3.07717111012425    2.76312146717602   10.40164479544132
C         2.46967674332287    3.55054846621276   11.38319177712892
H         1.44888087720439    3.86701998942465   11.23282590447399
C         3.15737669444605    3.91109613220964   12.51493700512922
H         2.68278537615964    4.51953051541837   13.27027111961901
C         4.48375209499195    3.49690484886782   12.70551616891119
C         5.08980798822888    2.70593604718387   11.71818364647141
H         6.11109996846310    2.38295569864703   11.85771797435320
C         4.39743277747439    2.34706975673969   10.58787598075660
H         4.86919727006894    1.73763386945113    9.83148717721088
O         1.28529993472415    0.50839216218112    5.08530492471565
O         3.06591687895526   -0.61640321390548    4.38806729647004
N         3.72053379147063    1.63099811701139    5.75672090166388
H         3.96642114501091    0.86685242307367    5.10831440442795
H         4.49205322142517    1.77480584315700    6.40862395438267
N         1.46967420658257    2.89489800297962    6.34146730952071
H         1.05554068809131    3.25950784196450    7.21309419640520
H         0.75426732242742    2.88312794894887    5.61410419377013
N        -0.97002441630063   -1.72080071005454   -0.38100046041241
H        -0.49299309009220   -2.18130223785350   -1.13493007571080
H        -1.87083617687096   -1.32029248257960   -0.57091273879939
C         3.46364489202134    2.87226761568255    5.01230880660510
H         4.39123214924697    3.38031909050265    4.73376741861162
H         2.91173724208666    2.62138820834806    4.10309831747807
C         2.59441157907032    3.74041821379051    5.91556551828768
H         2.25388985427476    4.64412137325831    5.40225225158963
H         3.16293552318246    4.03110494296675    6.80239642504355
C         1.89405939370021   -0.22920570754954    4.22327703093578
C         1.13163443117070   -0.59841155178953    3.02140011117307
C         1.73913241334553   -1.38585014492657    2.03986550300889
H         2.75988094692929   -1.70245351755770    2.19031583300800
C         1.05146630138417   -1.74635467953796    0.90809186034893
H         1.52605389185987   -2.35481768354439    0.15278029873056
C        -0.27487869520914   -1.33209473519756    0.71745865343635
C        -0.88093022085893   -0.54108182525611    1.70476470101228
H        -1.90218662941123   -0.21800552621173    1.56516961900237
C        -0.18858799689959   -0.18227119445098    2.83510710622306
H        -0.66035430212915    0.42717028069068    3.59148803719742

