87
CSD_code = WAVWEY | q = 0 | S = 0 | Stoichiometry = C38H45FeNP2 | MND = 8
Fe       -3.97779391741843   -3.00624720981499   -7.11800417731482
H        -5.04296444588537   -2.03339922336034   -7.03766820068934
P        -4.37355349786156   -3.42645326640548   -5.06497022745944
P        -5.60325661271176   -4.38112488323196   -7.15063871023859
N        -5.85136544596100   -4.28394457904282   -5.42371104912376
C        -2.01740136558645   -3.61258951741179   -7.58882829347334
C        -2.02421827231816   -2.26270593700307   -7.10747624005381
C        -2.83543936765495   -1.48310402485941   -7.96923022754914
C        -3.36854847281651   -2.35236585868814   -8.97275244604048
C        -2.82939126223268   -3.65552398124434   -8.75328294270662
C        -1.11163882461311   -4.68621205815895   -7.06956140975881
H        -1.26306309103189   -4.84991701744462   -6.00288171743589
H        -1.27962323204629   -5.62764376164280   -7.58690262558330
H        -0.06868126697810   -4.40138637298757   -7.22061215193480
C        -1.19838615049085   -1.73587556890852   -5.97746567138852
H        -1.78223738591607   -1.05511236440340   -5.35933058603610
H        -0.84096468539222   -2.55093951494985   -5.35372422400444
H        -0.33406105376371   -1.18971261973791   -6.36096196909742
C        -3.03148903209841   -0.00494553614065   -7.88402449260619
H        -4.00936781419087    0.27102439966134   -8.26921520684964
H        -2.96207730923367    0.32894839432414   -6.85155283055219
H        -2.26871267918342    0.51375679608380   -8.46828481498884
C        -4.21925808670448   -1.94814903869327  -10.13225776967624
H        -4.86903213039222   -2.76877052518678  -10.42846882611767
H        -4.84937384315627   -1.10552585155903   -9.86039684602385
H        -3.60488969004543   -1.66289101144090  -10.98879942373318
C        -3.02783983292029   -4.80423719739581   -9.69019882831886
H        -2.64456002772301   -5.73279921812139   -9.27651713945279
H        -4.08623221694832   -4.94314565841512   -9.90863568486380
H        -2.51180069981947   -4.60772705081990  -10.63178509071868
C        -7.06380097632943   -3.83812132888665   -8.08241404678803
C        -7.73694580739524   -2.68761449657034   -7.68235034368574
H        -7.45377526533082   -2.22685750137125   -6.74821473107754
C        -8.70575605335413   -2.12475140951153   -8.48811579659864
H        -9.23314334413306   -1.23949950115466   -8.16230847559944
C        -8.98890545811976   -2.68218638929138   -9.72638432623041
H        -9.74500554522544   -2.24144071113156  -10.35961180267789
C        -8.27633096927949   -3.78618482286808  -10.16254900005294
H        -8.46658885383133   -4.19964692381068  -11.14301279272679
C        -7.31073587947314   -4.35571227361144   -9.35160706153752
H        -6.73746461367296   -5.20029408327956   -9.70982715944073
C        -5.50907164527584   -6.18706273534817   -7.47003929082971
C        -6.53015772791647   -7.03881749953459   -7.87672840279854
H        -7.52830441615969   -6.66015805574260   -8.04204663571670
C        -6.27235401151664   -8.38588015475709   -8.06520664083783
H        -7.07042856908047   -9.04267069926388   -8.38117157647396
C        -5.00282034861382   -8.89733004612030   -7.84934459792507
H        -4.81257946915618   -9.95040689011808   -7.99745413774492
C        -3.97932691044608   -8.05395411538699   -7.44851890224836
H        -2.98588153014122   -8.44608049943381   -7.28155097241280
C        -4.23505619184313   -6.70756799430931   -7.27038451012381
H        -3.45406292666227   -6.02103520779929   -6.97327093259042
C        -4.74510523523824   -2.11597470861407   -3.83395135578711
C        -4.69047855155196   -2.25047597114546   -2.44917315898657
H        -4.43566496983079   -3.19992400657626   -1.99839152173870
C        -4.95331876228391   -1.16200366066066   -1.63624015157577
H        -4.91459679787662   -1.27562446583854   -0.56218723322142
C        -5.26038753895005    0.06961394376221   -2.19148444677525
H        -5.46310200701801    0.91467199742526   -1.54965550279516
C        -5.29521611788370    0.21614350334655   -3.56921595007117
H        -5.52041578517332    1.17879183256534   -4.00512686532082
C        -5.03178134032772   -0.86964948033475   -4.38264746747313
H        -5.03701068400077   -0.78943542108869   -5.46153172509240
C        -3.31685836272522   -4.54728766291756   -4.08709601928779
C        -3.36939012951140   -5.93080630612188   -4.21229479574417
H        -4.16741145983884   -6.38023728850684   -4.78393918066001
C        -2.41128005681411   -6.72798206988098   -3.61405928690082
H        -2.47011214764422   -7.80285440937916   -3.71095592429339
C        -1.37339243838118   -6.15236831516998   -2.89919832022083
H        -0.62303691588687   -6.77506621614736   -2.43453482472876
C        -1.29550071284415   -4.77270307866473   -2.79123128520883
H        -0.48076781069677   -4.31845297764287   -2.24524172542864
C        -2.25465386840938   -3.97614539321708   -3.38772769711343
H        -2.19121750726912   -2.89896387450717   -3.31205514519688
C        -6.97718090162154   -4.66276163722110   -4.55196962588781
C        -6.45696188218606   -5.35645863400734   -3.29069894849504
H        -7.27787243485691   -5.52997274799491   -2.59843651478893
H        -6.00503428658079   -6.31451736561324   -3.53239654864193
H        -5.71511601265059   -4.73381588797419   -2.80027677141689
C        -7.89814455359338   -5.62185365075293   -5.30289557233015
H        -7.38918267875279   -6.56060432883365   -5.50641357453606
H        -8.78063875862678   -5.82948098836929   -4.70140176235546
H        -8.21568434549659   -5.17407797691944   -6.24253075640729
C        -7.78904981270021   -3.42844840715456   -4.13552829176340
H        -8.55250128619956   -3.71304682635403   -3.41425583690807
H        -7.14414351071257   -2.68151561250299   -3.68206193685815
H        -8.28097210981260   -2.98881931070770   -4.99764231608022

