63
CSD_code = WAVWOH | q = 0 | S = 0 | Stoichiometry = C20H33F3NNbO5 | MND = 6
Nb        3.48250376003100    2.36399072686822    4.09382031011609
F         5.19881320332555    5.46676071891694    5.71170241000972
F         5.12444068034388    4.70847929023341    7.72541053939972
F         7.02149061827217    4.96693076822200    6.74729761509867
O         3.01336388376144    1.82645246428599    2.35599864799184
O         4.66274306882941    3.57620963677314    3.45501773090413
O         2.13800554644153    3.58018765794311    4.48669519442166
O         4.38105732518826    2.76414126898154    6.00385773718301
O         2.64540479916377    0.96853617009472    4.89230465038487
N         5.39290032036493    0.93298603440133    4.18515331812999
C         5.32994144504749   -0.20443395097994    3.49751740289503
H         4.33824542896719   -0.49676315295414    3.17481709067860
C         6.43159853215819   -0.98315247771907    3.20239369653517
H         6.32196713052777   -1.89781443946651    2.64231742070527
C         7.68238859397904   -0.55065626976817    3.63867458819554
H         8.57105508470195   -1.12272087182787    3.41561798856666
C         7.75972338222819    0.61273263942565    4.36408561658940
H         8.70593632329343    0.97878223730525    4.73173154910766
C         6.58992215837951    1.34729855255154    4.64868654088256
C         6.67667266071720    2.55604281134448    5.41062154166854
H         7.65346683994226    2.99162001514673    5.54988913696117
C         5.58491167370326    3.16941108021434    5.95212656937887
C         5.75517210205919    4.56743243473055    6.55137321735026
C         5.31586503272877    4.20267865586572    2.41951670313422
H         6.03811046756476    4.93860282717074    2.82579736534566
C         6.07093328644009    3.15255506498940    1.58963527261650
H         6.85925909963279    2.69754883372013    2.18736809815793
H         6.51356712032718    3.60394915936994    0.70534777983734
H         5.35870227385113    2.37983371345511    1.29343474101037
C         4.28108641456920    4.92715353296287    1.54644034765122
H         3.82686583441301    5.74023541167295    2.10905206488864
H         3.50733090374202    4.20477818629363    1.27898263395328
H         4.74101088507749    5.32826391443679    0.64683894167518
C         2.00214729091767    4.94465681275030    4.67409527370515
H         2.95207017297455    5.44026607928582    4.38741857743074
C         1.72494563970777    5.23398630074621    6.15576050015549
H         2.50934150114360    4.78248429344842    6.76009190434596
H         0.76813521253256    4.80321696237646    6.44417877942278
H         1.70828939965384    6.30526331820565    6.33748585669013
C         0.87112171107198    5.48943818392794    3.78943741370283
H         1.09738597182197    5.29183816453019    2.74316158953595
H         0.76183310437065    6.56102683982944    3.93346495418020
H        -0.06380490466406    4.99581054291026    4.04736584914324
C         1.95058724197625    1.28619184191685    1.64658267520727
H         2.06892945316351    1.55769625525017    0.57736170269953
C         0.63413866471293    1.86990663158725    2.17348104031568
H         0.62991552103221    2.94816214348602    2.02271016786454
H         0.58120773557286    1.67120557213400    3.24620303545856
H        -0.22103820329588    1.43026133399660    1.66549344823593
C         1.94239413655687   -0.24412351958178    1.77092508263821
H         2.83621627886800   -0.66382555886639    1.31277512538871
H         1.06797350889084   -0.66289591187423    1.27930182852834
H         1.91997561492022   -0.49884222048055    2.82956115275854
C         2.16712723797815    0.34537891587604    6.02297194394803
H         3.03434229398824   -0.04770944160278    6.59444074365066
C         1.24263004188584   -0.83059891141055    5.66659163689000
H         1.78281047563235   -1.57140585131604    5.07998673196390
H         0.39709311925398   -0.46782749985376    5.08480835917055
H         0.87264442709554   -1.30499798939970    6.57157378678278
C         1.43147082843710    1.37761637715652    6.88696008218930
H         2.12100018244751    2.18876201154917    7.11696725490122
H         1.06986787710941    0.92983644035055    7.80936156393913
H         0.59269258446958    1.78166923841460    6.32055747772534

