87
CSD_code = WAVWOI | q = 0 | S = 0 | Stoichiometry = C38H44ClFeNP2 | MND = 8
Fe       -6.01370865051966   -7.65427816060946  -12.96525101577327
P        -5.49949124963691   -7.97546767238291  -15.04560265875201
P        -3.85444805672673   -7.85361479622239  -12.98882640247647
Cl       -5.65770081779720   -5.53197250058833  -13.36727506569538
N        -3.78403325948898   -7.99415375451490  -14.72920156490571
C        -6.45912003451151  -10.66717830051245  -18.05373576856063
H        -6.69456335378608  -10.66498964960936  -19.10814892968225
C        -5.89245161238879   -6.63725385450111  -16.21534969088619
C        -2.85081209114733   -9.23982714039069  -12.32042867977009
C        -5.85226207133566   -9.46379481428047  -16.06300704313840
C        -6.16062554231423   -9.47346627868074  -17.41903150188152
H        -6.17046777844763   -8.55242268475529  -17.98477542485974
C        -7.20209269508297   -6.64073623961465  -16.69018211267771
H        -7.84749029574685   -7.47495823713965  -16.44485053944183
C        -3.49217920171476  -10.47283229721299  -12.29357051760221
H        -4.49705244415943  -10.52215708568508  -12.68344804347988
C        -5.09046366837179   -5.53045756710423  -16.45516724966159
H        -4.10755074249693   -5.47943703620819  -16.01458131828569
C        -2.87261095939997   -6.42176315629002  -12.44002119087529
C        -1.57795481183606  -11.49234391960194  -11.28862637564640
H        -1.08000423914136  -12.36288874444719  -10.88814133740093
C        -1.56218863994297   -9.14329819011790  -11.80641328346257
H        -1.04626000820972   -8.19341259399371  -11.79385784017461
C        -5.86218758239226  -10.66620497243195  -15.36518668740270
H        -5.62529512823444  -10.63672924791310  -14.31266980444244
C        -2.67169918452182   -6.34446075369458  -11.06363468156175
H        -2.98822892123661   -7.17046572177298  -10.43875566141552
C        -6.45888639492992  -11.85940792618582  -17.34890799673138
H        -6.69584747871749  -12.78541747806253  -17.85139050488880
C        -6.54137049194995   -8.41283446205107  -11.02777072930941
C        -2.93516589465762   -7.99778997450762  -17.04020706184593
H        -3.89173579481561   -8.38162230480247  -17.38226206185687
H        -2.15422937224454   -8.39583036276790  -17.68462478362763
H        -2.93790350825202   -6.91647364149747  -17.13505648230749
C        -2.54045803743811   -5.33279398120136  -13.23340072897604
H        -2.77244903615680   -5.35093752234501  -14.28596995385536
C        -7.06563731287612   -9.28537458330490  -12.03117023122440
C        -7.67495952645313   -5.59175917866404  -17.45428854926726
H        -8.69041155994443   -5.60630677730484  -17.82420866586990
C        -2.67010922037767   -8.42665756400565  -15.59627867994909
C        -0.93280853848559  -10.26674752809012  -11.29808207725150
H         0.06987218987120  -10.18298931564460  -10.90457349074755
C        -7.99924139211519   -7.19920662020582  -12.33878852389358
C        -8.83233273157698   -9.09523025505805  -13.91360401878960
H        -9.20163981098214   -8.31197463524711  -14.57060016505383
H        -9.69157428807473   -9.60489333091368  -13.47343306511663
H        -8.28138818073689   -9.81708809015912  -14.51430524488436
C        -6.15651819559976  -11.85894537080201  -15.99645251216832
H        -6.15570222127633  -12.78475871498894  -15.43905764697404
C        -2.50720421794498   -9.95297734114522  -15.56559225877131
H        -2.27121722696088  -10.29466046760798  -14.56223310829156
H        -1.69730098201293  -10.24992337227561  -16.22814250229330
H        -3.41838379345721  -10.44215415675481  -15.89763579980003
C        -7.97000682035495   -8.52418272008546  -12.83501524021996
C        -7.10903499533671   -7.12977738380625  -11.21491262983206
C        -8.86510596668762   -6.07531475274554  -12.80125001827512
H        -8.27054740819912   -5.17183732892049  -12.92075194023435
H        -9.64880545891971   -5.87512257365863  -12.06923570768879
H        -9.32874362801175   -6.30417024475765  -13.75723026209701
C        -2.86615660590438  -11.59574727867698  -11.78891629741236
H        -3.37855781608393  -12.54713447320841  -11.77893433554629
C        -5.65870225100801   -8.83811016571555   -9.89922769952565
H        -4.91357235412625   -9.55838446149035  -10.23277721477899
H        -6.25588667456980   -9.30445684643983   -9.11332154925642
H        -5.14159332279497   -7.98332154588770   -9.47069799326803
C        -1.36504940915648   -7.78713747727447  -15.12034020373372
H        -1.37487630569138   -6.71308152423357  -15.27922207194713
H        -0.52938350413652   -8.20787120088807  -15.67527606073922
H        -1.21097498310873   -7.98255713252900  -14.06327409793088
C        -6.84958657427412   -4.51385799258125  -17.73139783295335
H        -7.21790120842191   -3.69020291912795  -18.32536510852953
C        -5.56276200016186   -4.48113721403695  -17.22121330738215
H        -4.93107261621263   -3.62437804260393  -17.40590407086556
C        -1.71064544225406   -4.16531273298219  -11.30841628125187
H        -1.25363295075554   -3.28967527711453  -10.87105120543436
C        -1.94972201996383   -4.21654697799877  -12.67134304229362
H        -1.69086822397860   -3.37420943736694  -13.29628752063699
C        -2.08357503731066   -5.22823005624103  -10.50152260115016
H        -1.92563022978048   -5.17981048476595   -9.43338133935569
C        -7.06346370298919  -10.78026347794568  -11.95053593418430
H        -7.17614630486423  -11.23996434746597  -12.92934824324477
H        -7.91330437948485  -11.09939389127008  -11.34137311507738
H        -6.16229825083994  -11.15863723786558  -11.47478218828736
C        -6.92670582771971   -5.92520904430924  -10.35346068445179
H        -6.04364593238703   -6.02163380826930   -9.72695735160064
H        -7.79812076027344   -5.78170760192251   -9.71254659768460
H        -6.80667497546108   -5.03910201992407  -10.97265301946146

