102
CSD_code = WAVXAV | q = 1 | S = 0 | Stoichiometry = C36H63FeP2(1+) | MND = 7
Fe        3.72580353909679   13.12124024296279    2.42160244182654
P         4.13184849518855   11.98651162263510    4.30543702389819
P         3.02119252244567   14.76533691862760    3.73459225769178
C         3.90291580790063   13.34067141361608    0.27941349797707
C         2.54706402908408   13.56729254137035    0.62018502119808
C         2.04375702520098   12.37129869541766    1.22626272641824
C         3.08063882235808   11.39503734263701    1.20339657670612
C         4.24379138261031   12.00094418596612    0.66513863560959
C         4.78724604857450   14.21570571087458   -0.54301588445831
H         4.43780055003700   15.24404505516467   -0.56094637625980
H         4.79757048167928   13.84852111258374   -1.57054831013379
H         5.81402250086655   14.19772142445525   -0.18080883246738
C         1.68029885911293   14.69289095978789    0.16249870815639
H         1.00924225362003   15.02600096922244    0.94946593255895
H         1.06779257721964   14.34440420455466   -0.67053058189637
H         2.26006852005305   15.54164286190764   -0.18627845461435
C         0.60070180715961   12.08558495108866    1.46907866386028
H         0.44700103213286   11.48992561365692    2.36507161721956
H         0.20529524065284   11.51697497631852    0.62543135177366
H         0.02457574930644   13.00156509363637    1.55226641108858
C         2.90747986738055    9.93386928454922    1.42464792840942
H         3.77993851850811    9.49374594637225    1.90024791312192
H         2.78167346150403    9.44844662215997    0.45507963143074
H         2.02118555235527    9.72711145872545    2.01595589630129
C         5.48013010775400   11.27382729954235    0.25268284723934
H         6.33881475576536   11.93750590496314    0.19015692551772
H         5.32788979452553   10.83526514970083   -0.73502964263045
H         5.70950218854029   10.46610220390682    0.94229865446674
C         3.43437806613650   14.42343971156158    5.51922639917960
H         3.83489598784692   15.32512504638736    5.99105733336851
H         2.50162777234673   14.17224997453657    6.02793501302357
C         4.41552417234905   13.26072512831723    5.64330335039749
H         4.34281737291837   12.80020363058108    6.63161399313208
H         5.43962941427388   13.62421417387731    5.53140017532914
C         3.08706350960903   10.77585392444581    5.28190785906339
H         3.42013156993911   10.88036010627175    6.32349684636560
C         1.62678796239661   11.21325146208645    5.19006068714685
H         1.53563070899071   12.27325251482108    5.43022769418981
H         1.28844216667364   11.08042778801302    4.16190889494250
C         0.75403888107240   10.38630634334601    6.12958746118357
H         1.06395587389961   10.56261918679381    7.16207826927880
H        -0.28783596055276   10.69760439332240    6.03688449697990
C         0.88674307060451    8.90079392413938    5.80918020882495
H         0.49656129351809    8.70770575076616    4.80730075658458
H         0.29556233784145    8.31523568308999    6.51385719166857
C         2.34890880133975    8.47113584232438    5.87549684499316
H         2.43694532638428    7.41363244218678    5.62212820941642
H         2.72040913172223    8.60053299268271    6.89453903201090
C         3.19777991681258    9.29913392634447    4.90953266540527
H         4.23171146437125    8.95658896318454    4.95674714177024
H         2.83029684431012    9.13647212888591    3.89962831872555
C         5.78886762257287   11.14967556248284    4.20489487154196
H         5.60517656367527   10.25701091402788    3.59216885341138
C         6.42467267359325   10.71774184368519    5.52651023571491
H         5.74657167208688   10.09198208157469    6.10730462883814
H         6.66656637593927   11.59682781346303    6.12647253906072
C         7.71117056506313    9.94406065412412    5.23565028886815
H         8.17470342519979    9.64070232455485    6.17537659635303
H         7.47061057485543    9.03728915730716    4.67589109114061
C         8.68882721840808   10.79448852324058    4.42888733253855
H         9.58434925523429   10.21404242877306    4.20519330122726
H         8.99299854561703   11.65855779511284    5.02381404312859
C         8.04528942698274   11.27615554742387    3.13086884634494
H         7.81481741189243   10.41685661472873    2.49776434400045
H         8.74217789022057   11.91522176097246    2.58595547680500
C         6.76517035534362   12.04577658457231    3.44241616191666
H         7.02820455492294   12.91134911666608    4.05316943806236
H         6.29251873592995   12.41054868926396    2.52431696910654
C         4.24190614417160   16.12307000809436    3.34740893202595
H         4.36850209416649   16.77982939531681    4.21656614808127
C         5.56570547784493   15.41561139586401    3.04505651101917
H         5.39365028181513   14.68962452814588    2.23066203185239
H         5.89872091814043   14.86443277372031    3.92468836651707
C         6.65660853633139   16.40320858812955    2.64229928973469
H         6.87337047197907   17.05424649191393    3.49236192420703
H         7.57258488977560   15.86201432297972    2.39747073112128
C         6.21887267835668   17.25693460758147    1.45754972796542
H         6.09519874845777   16.62654584899179    0.57555888801877
H         6.98978900907248   17.99430024660752    1.23158281793402
C         4.90402098485546   17.96233622740026    1.77154593883960
H         4.58141693694208   18.54819006372686    0.90939011505703
H         5.05266346546777   18.65305292681873    2.60431868644172
C         3.81885182365291   16.95253575519922    2.13917205766047
H         3.64854493835833   16.27818138275449    1.29997078019451
H         2.88970504955195   17.48545480012573    2.34366591060248
C         1.39280145428662   15.64884085911660    3.86796808742481
H         1.19674044062357   16.02784451790303    2.85723829835089
C         1.37569674566605   16.83154136207513    4.83736024534004
H         1.52455433950845   16.47839364353127    5.85912999597926
H         2.17007833822437   17.54175876952526    4.60429125311333
C         0.02218807327788   17.53706057378183    4.74555043863878
H         0.00067481352387   18.37513681647122    5.44359956280545
H        -0.10946290524104   17.93963156127448    3.73851810982391
C        -1.11806022892905   16.57254625189508    5.05912063837922
H        -1.02937632293228   16.23022980191421    6.09242923940426
H        -2.07397771173852   17.08779555290618    4.96077663840001
C        -1.07825744589466   15.36782218114473    4.12293114851009
H        -1.24348162159904   15.69919695438510    3.09514015805719
H        -1.87574290283373   14.66936459982934    4.38081590308709
C         0.27574194043783   14.67022261470177    4.22786087731877
H         0.40262867827162   14.32106541305242    5.25452596923084
H         0.31740182345814   13.80103694677271    3.57046813779994

