43
CSD_code = WAVYOH | q = 0 | S = 0 | Stoichiometry = C18H18N2NiO4 | MND = 4
Ni        3.54353287697879    9.04758963616650    7.18176491928081
O         4.56014645149122   10.08901707788171    6.04641659256987
O         2.62297458875934    8.42745019363928    5.70761599455216
O         5.56165934567529   11.36789525109180    4.00315061953069
O         1.78656310396988    7.86574655619274    3.29993939795563
N         4.50600706582886    9.59559796535838    8.66380626729802
N         2.48335140567205    8.07389399926265    8.34459904389023
C         5.46844613739670   10.94487034361525    6.31213613799350
C         6.06068819808144   11.68931387016979    5.22617238593729
C         7.03317519075267   12.62406937389566    5.46997442806393
C         7.48433638551764   12.87828361760875    6.77669596314397
C         6.96231430543933   12.19012321343692    7.82926752493676
C         5.95635149478276   11.21762729926457    7.62498356806056
C         5.44407018853536   10.49006039266078    8.72201962941193
C         4.17141516955368    8.86254672628609    9.87741553065674
C         2.72554042436601    8.38085162284805    9.74798584648813
C         1.54900762409080    7.22249196534134    8.05197713777298
C         1.12196424181719    6.88518403187898    6.74849290909490
C         0.10900567996174    5.91579244801551    6.56493842450545
C        -0.32972971822231    5.60058317773299    5.31508627688716
C         0.21636312201333    6.24153352102134    4.18962102695336
C         1.19894681786222    7.18813541524507    4.32151354700676
C         1.70357079522127    7.54648224757585    5.62581520511756
C         6.08093544765555   12.02087806373673    2.87609688398141
C         1.36130325775010    7.60192367075999    1.99007470751136
H         7.47244060979617   13.18408507181547    4.65894850943290
H         8.25065922806404   13.62264090776877    6.92906875743119
H         7.30732491415814   12.37534653901527    8.83620643946290
H         5.89517625597161   10.69925123322311    9.69457665232611
H         4.30524706655181    9.48678558327537   10.76958018561752
H         4.84069932175081    7.99579857256076    9.95625438709254
H         2.53796918163131    7.50746373465942   10.38480871926867
H         2.04271727952684    9.18524162195318   10.05151553978003
H         1.03035095031407    6.72561471775071    8.87491696336738
H        -0.30871410336566    5.43136515110923    7.43563279310506
H        -1.10136554085384    4.86003454520528    5.17114579819696
H        -0.15789547062682    5.97046026294727    3.21453851552535
H         5.55020369689035   11.60191546086327    2.02269939256073
H         7.15507043696382   11.83586054642606    2.76042596069136
H         5.90437638029808   13.10181799231132    2.91643134483989
H         1.95318143390948    8.25548305209508    1.35128898155662
H         0.29792419987439    7.83117784111392    1.85582825199993
H         1.54289455819224    6.55871548521829    1.70727283914238

