85
CSD_code = WAVYAW | q = 0 | S = 0 | Stoichiometry = C30H46N6P2Pt | MND = 4
Pt        0.74208823161744    3.73932656174144    7.35351538159748
P         0.07647946790265    3.91697968429577    5.15995612491136
P         1.12822978575467    3.44617805061561    9.59032421412655
N         1.55461910788145    6.64925759536455    7.18721205504679
N         1.17802043660104    7.91742916686673    7.39504921945683
N         0.00282818505385    7.90064319378687    7.90663049580461
N         1.83444577858930    0.96667818992459    6.62142933477139
N         1.50662661148044   -0.32366759972831    6.46545469805502
N         0.28916842315483   -0.47113960805137    6.83814141706364
C         0.59945143844064    5.76871375986269    7.57971697480936
C        -0.39603480809990    6.62128827360868    8.04009182645637
H        -1.36286564928705    6.39368387369936    8.44928776396014
C         2.84215490771346    6.34340358923770    6.63411617122536
H         3.11172594861304    7.15939710293813    5.95245930909196
H         2.75844414683268    5.40720846628932    6.06358764976134
C         3.91471461805140    6.20586145442024    7.68762485741595
C         3.91429068618154    7.03122399262179    8.80498564553161
H         3.13786095826189    7.77480562432640    8.91418879458314
C         4.90391539159832    6.90588164337074    9.76402918684228
H         4.89303517238454    7.54920553137819   10.63172711602864
C         5.90735065739952    5.96337580489476    9.61125454015846
H         6.67947283951173    5.86727064584936   10.36018196022687
C         5.92127631585256    5.14859724403904    8.49256186856543
H         6.70046059314020    4.41168311343964    8.36719552592310
C         4.92676446546770    5.26890347093120    7.53778176875556
H         4.94092876373757    4.63542554533175    6.66174723036980
C         0.79321302720889    1.69409715170807    7.10451288303559
C        -0.19180472165651    0.72206235638224    7.23526337676083
H        -1.20385853707062    0.80890898369101    7.58540272841656
C         3.14005210142904    1.45564341834183    6.28431293024139
H         3.10594363540293    2.55001218946718    6.40599294302572
H         3.34475033264080    1.22289139735849    5.23044909426662
C         4.26779447794990    0.89241249732807    7.11815390508576
C         4.11091046033055   -0.21931764162104    7.93162943200761
H         3.16119239000292   -0.73144277509305    7.96496739089591
C         5.17584692949265   -0.69398213286913    8.67907326023708
H         5.03974272485225   -1.55998334041043    9.31001129254030
C         6.40853002140382   -0.06929599946458    8.61581111726286
H         7.23753505798474   -0.44055514355674    9.20012841976787
C         6.57723343971589    1.02942148082184    7.78928863138075
H         7.54032563835335    1.51445172587962    7.72302230914629
C         5.51392486128366    1.50520582903467    7.04613993561418
H         5.65356110716140    2.35866515222448    6.39760564752833
C        -0.21625257404544    5.61385429037049    4.48482425050327
H        -0.86466617977660    6.11724704809187    5.20795673800218
H         0.74236439154543    6.13955234505416    4.50791828398993
C        -0.82071869160719    5.70543903299404    3.08992779107880
H        -0.96033555243098    6.75277728509873    2.82876703552665
H        -1.79236522351192    5.22011905369717    3.04306750455394
H        -0.17237105268171    5.25723481335935    2.34091662659599
C        -1.58193320048372    3.12707417889257    5.09942741099661
H        -2.09221820047690    3.35456955826963    4.16097760167045
H        -1.42087115042817    2.04645916434603    5.14914135949975
C        -2.39181091932154    3.58462707710657    6.30620016802857
H        -3.32211726995915    3.02669076595224    6.39114327023199
H        -2.62848167059265    4.64501174438122    6.24090215949069
H        -1.79540511931039    3.41587494428165    7.21090065381336
C         0.93340936821520    3.03510438791174    3.78168471354890
H         1.07109015131810    2.00100639125916    4.10795216655476
H         0.26341460655864    3.02096103942859    2.91775663952007
C         2.27473344556482    3.65589522864613    3.41109494697876
H         2.77273094239183    3.05580566335994    2.65169538348394
H         2.92672987338312    3.71191227921735    4.28076790017797
H         2.14552903348044    4.66214253268739    3.01800526730155
C         1.49348066458336    4.95658835232705   10.58274797895133
H         2.41350317436265    5.38234545592216   10.17017756203589
H         0.69253785818339    5.66872340988840   10.36589088098745
C         1.63076299940222    4.75813068211519   12.08623079849911
H         1.84356448092372    5.71524067769875   12.55885604569297
H         2.44482622062825    4.07825420955278   12.32562935131653
H         0.71350771235760    4.36781992774123   12.52045187115293
C         2.43148518378259    2.25046160152283   10.10693431972514
H         2.30036110184428    2.00959947369967   11.16497849874656
H         2.26897868915516    1.33377617105664    9.53422008842559
C         3.82862346527693    2.79132207193632    9.83869398019233
H         4.57490501956482    2.01096700312515    9.97020618529819
H         4.07001361270911    3.61423567908319   10.50762232438829
H         3.89794269385948    3.16056700809093    8.81719999036382
C        -0.35437787114054    2.71265605081927   10.39703880554335
H        -0.56993102517362    1.78693090005953    9.85609718116301
H        -0.11703133490567    2.44970017798810   11.43121502506003
C        -1.55185448448771    3.65283747099322   10.33123185779203
H        -2.46508786126298    3.13436778216482   10.61651192177484
H        -1.67032628597830    4.03277731411812    9.31713584197788
H        -1.41888444107558    4.50303023527710   10.99648519168700

