84
CSD_code = WAVZOL | q = 0 | S = 0 | Stoichiometry = C44H34IrN3O2 | MND = 6
Ir        1.64364327282335   11.70397925020504   10.26562225538989
N         3.55904540572126   13.87960007503246   11.21128246777610
N         0.59256028543581   10.10707848399293    9.42181887506480
C         3.13584497623671   14.59137563393098    5.99484578379350
H         3.91840114311572   14.81056368028585    5.28214070133039
N         0.61292497760399   11.42141943574008   11.99882233916617
C        -3.51237136008233    9.90765886030912   14.54850007205755
H        -3.78419278228445    9.92673451497620   13.50288643392780
C         2.74882370491532   13.09534227184408   10.90545139051735
C         0.09833147398484   12.89362500132239    9.84421789165779
C        -0.04078266100881   13.70887322850562    8.72139499097414
C         1.03440865149414   10.72293844934000   13.06716079785084
C         2.21386871143496   13.11654552809867    7.70675887420684
C        -4.11081561974217    9.45105893474640   16.83928626514175
C        -2.36712093590153   14.02471591360228    9.33403884881617
H        -3.33320125457513   14.45460695012011    9.11056051863121
C        -1.60606354169203   11.50326527744924   12.86178693754911
H        -2.61903456180672   11.86137513304647   12.78715299917536
C         0.09109542290025   10.19386032514599    8.19225975340943
H         0.07581490627220   11.17451442481208    7.74018976316280
C         2.90448879443695   10.31674774707768   14.58624270893590
H         2.23250052408047   10.58763573961808   15.38896805041809
C         0.09526698325163   10.30820264355934   14.02520169907536
H         0.40902420000632    9.65109564020980   14.81969561812314
C         3.36400307946860   10.13721786140309   12.19711614131946
C        -2.21920630959383   10.25849926837412   14.93062265751176
C         4.92125813775169   13.41403785905933   13.61070071963004
H         5.57036535399500   13.39724036501586   14.48160228980982
H         5.04825360250793   12.48207249917218   13.05998382485501
H         3.88459400505518   13.44657947355071   13.94539744400758
C         0.61113706916858    8.91323932422518   10.00652374917866
H         1.02762795983549    8.86053567435468   11.00192871346001
C        -0.67132938669894   11.84373947122633   11.89972608617272
C         5.22981459763418   14.58753252211214   12.73775518860332
C         2.44154618858923   10.39568896393817   13.26421064019081
C         4.76283605690874   15.85344953272945   10.68553755052918
C        -4.43942307553480    9.50649006035382   15.48919558610566
H        -5.43572983693773    9.23038877865687   15.17394683041356
C        -0.36172778648690    7.85300308930542    8.10484491607145
H        -0.72236754530764    6.97536060587855    7.58945488279323
C         5.75565033218036   16.75107509996985   11.04515027343603
H         5.96892838914388   17.58866147590966   10.39796946368534
C        -1.23272570282121   10.68810439825346   13.93265238349618
C         3.20018278632664   13.44793827442283    6.75373238577658
H         4.02560260034063   12.75879406739698    6.65236117936765
C        -1.31077363280850   14.24138887629496    8.46781782255400
H        -1.48546771156908   14.81538088725431    7.57023671821745
C         2.07819216820773   15.47321334183201    6.16699346992189
H         2.03343743403637   16.39401365999394    5.60468606029322
C        -1.88753017520254   10.19796085063856   16.28160705798388
H        -0.89684780710429   10.48488787326779   16.60221650376349
C         0.14528363571023    7.76501804454325    9.39082025801610
H         0.18996373037858    6.82132942564006    9.91138449958270
C         3.97004904630735   15.99527295476955    9.42732976261253
H         4.08865154397640   15.11425903161839    8.79686874308141
H         4.28397775323699   16.87168819185633    8.86776519242494
H         2.90680478717310   16.08067176612588    9.64978543547625
C        -0.96637968541174   12.68021133410028   10.73231808614040
C         1.08149743700735   15.15900719884683    7.06585113337149
H         0.27176037239728   15.86136522348479    7.20182139799665
C         6.21237663225471   15.51169378395893   13.05492802823230
H         6.77921289945649   15.38844705625892   13.96572331680866
C         4.51506229555936   14.77668447088162   11.54752898203529
C         4.67517219887760    9.73196480628267   12.56827368945709
H         5.35379494750557    9.51242038927836   11.75697480594372
C        -5.13266417351725    9.04006374561070   17.85368269231419
H        -4.66036492173549    8.75899615403573   18.79167048383052
H        -5.72247344413231    8.20130587069301   17.48926736083973
H        -5.81563288055572    9.86718419797889   18.05036709106103
C        -2.20505379424623   13.26843967510598   10.47923417023940
H        -3.03874007671182   13.13138975783800   11.15118538785809
C         4.19365264169080    9.96389649586341   14.89984318716856
H         4.51668339601304    9.93549056419234   15.92950692298678
C         6.47342620959706   16.58363241369761   12.21768812145492
H         7.24374852920337   17.29303781347949   12.48041441726241
C        -2.82231971251188    9.80413268263071   17.21942271138155
H        -2.54736267650882    9.77138526368224   18.26409726073386
C         5.08043875837169    9.64670187778174   13.87133888838772
H         6.09376432750393    9.35074888356584   14.10518450484689
C        -0.39202931554332    9.09831238275775    7.49900310331675
H        -0.77828937874899    9.22498669139614    6.50008048625951
C         1.09274581670450   13.98766226606872    7.82566229978570
O         2.40049840734622   12.00072676100385    8.36521838065583
O         3.08038318566332   10.18976552742017   10.94880262310337

