75
CSD_code = WAWBIG | q = 0 | S = 0 | Stoichiometry = C34H33NO5PRh | MND = 4
Rh        7.44400953576000    4.00617825137098    4.68799927082150
P         7.99934527478331    5.08914828217675    2.77142551177504
O         8.94150871233565    4.04410754588882    1.94652296023364
O         8.87217162723200    6.43969947976561    2.75632369079178
O         6.99503943443142    5.51539574947477    1.58622785146908
O         9.39745100744415    4.09660596004452    5.03375706258347
O         4.49463093540118    3.95254240301318    4.29471267931265
N         7.45929490684891    2.73348913510022    6.25382215103717
C         6.49520433614539    2.04130230421923    6.83018460009895
C         6.74605725410602    1.04760718405549    7.78469589554453
C         8.03417154611767    0.77686443508607    8.16109800404018
C         9.09214815633046    1.50233035127773    7.57591818760667
C        10.44608400597499    1.31903593665594    7.89468014004505
C        11.40432136426591    2.08983124389437    7.27714112969797
C        11.07875896137008    3.04247450316010    6.31988908704833
C         9.75184395932350    3.24667179063116    5.93856491164969
C         8.74364185197425    2.47503963186215    6.60130408338534
C         5.63908438558638    3.96677236279137    4.43911570411839
C         9.08652100200189    2.76676145955451    2.47092106480201
C        10.34869256006507    2.36574046701977    2.91584782498692
C        10.47562403553716    1.13291269198093    3.54035845636716
C         9.37748883986235    0.31442612629760    3.72892817973756
C         8.14680359505416    0.69597389881319    3.23149305436556
C         7.97801518935990    1.91942708269679    2.58474038058038
C         9.91762825470465    6.71729683680160    3.62639137349408
C        11.20534515878662    6.75646934368684    3.09133702983558
C        12.27082775203354    7.01548536696542    3.94310256359386
C        12.05800274928534    7.24358904167916    5.28944418197906
C        10.76920210430375    7.26425272470129    5.78796955887916
C         9.67662030153700    7.01599334930006    4.96710696925380
C         6.79247085364136    6.82310831505914    1.17133020531493
C         7.44016892279290    7.26829720943563    0.02031067536202
C         7.20300280964479    8.56766103544818   -0.40919958827496
C         6.34647201901188    9.39949472692705    0.28646856747948
C         5.70581110102684    8.93641262234156    1.42111707334955
C         5.91717760128878    7.64361051852482    1.88067989370284
C        11.53074868936533    3.26572625454772    2.74857722360262
C         6.67083009437193    2.20707903598138    1.89953651875463
C        11.41681317080990    6.56592827289064    1.62037737244121
C         8.28465605879639    7.10542990816271    5.51014847988098
C         8.34649460387645    6.35592171927151   -0.74517015294655
C         5.20551459394283    7.12553791602054    3.09055781580257
H         5.47676084291921    2.27230424333610    6.54867938398681
H         5.91324138826744    0.51273733707575    8.21453061271565
H         8.25437986175142    0.02033371295932    8.90061202293504
H        10.71815821280858    0.57535864866065    8.62802181765618
H        12.44423327581104    1.95161794541672    7.53849124922998
H        11.84727608524427    3.63690198399799    5.85018826762832
H        11.67733398503373    3.50961716171885    1.69762625491044
H        12.42993213115137    2.78917967810480    3.13006421684825
H        11.36261484677643    4.19395123284955    3.29379392404445
H        11.44475335994985    0.82825500304160    3.90647429416078
H         9.48578701691318   -0.62539183940847    4.24943783227988
H         7.29331353485061    0.04152168551096    3.33444278430973
H         5.83032903476419    1.93668418935790    2.53531594352036
H         6.61394520515879    1.59841947116639    0.99497933734765
H         6.57788053438226    3.24975827323635    1.60985365211274
H        12.46630286014300    6.38595681521983    1.40149176130888
H        11.09658482711264    7.46228828313086    1.08828449875620
H        10.82319085242944    5.73459072840061    1.24973677502715
H        13.27353303454055    7.03242975511773    3.54155418365072
H        12.89521732351074    7.42470308501724    5.94692201287018
H        10.60086038757746    7.47521711817006    6.83380549623648
H         7.65302571784278    7.67700465445833    4.83115112917888
H         8.29026508720304    7.59049824880261    6.48339365867197
H         7.84382469843347    6.09475778355234    5.63042684548798
H         8.82802838697400    5.64856164732473   -0.07529268364588
H         9.10318635373078    6.92393171391026   -1.28076891576012
H         7.76738033086457    5.78403549939688   -1.47104137662124
H         7.70154048271705    8.92561342748319   -1.29808430618079
H         6.17594104375710   10.40913537098448   -0.05594781389318
H         5.03087667566108    9.58322186559611    1.96208750360769
H         4.42760310767099    6.42336536096354    2.79025171878878
H         4.74324879246245    7.93872317417025    3.64444144899686
H         5.89085140517325    6.58618426661814    3.74671882631901

