47
CSD_code = WAWFAE | q = 0 | S = 0 | Stoichiometry = C16H20F6O4Pt | MND = 4
Pt       -2.31343725093984   -0.00010098210173    4.24525587132503
O        -2.62120134802466    0.00000106767350    6.22424359964016
O        -0.32881718685081    0.00000738437122    4.47957983661625
C        -1.66460085925488    0.00000044002256    7.05747903731704
C        -0.30228711649430    0.00000086689109    6.84923190102447
H         0.33833186550424   -0.00000103281319    7.71331937979547
C         0.29564906443450    0.00000706072708    5.56706135763002
C        -2.16338245334791   -0.00000599579763    8.51472130392247
C         1.82330312742317    0.00000418891176    5.48582356727709
C         2.36207900422582    1.25930851970993    6.17546772952777
H         3.44398009648558    1.29178441198918    6.07179683323501
H         2.12042025903000    1.27297245320856    7.23422977151086
H         1.94606619492032    2.15161174834976    5.71421189803435
C         2.25412446848816    0.00000611875642    4.01793807014669
H         1.87084882575827    0.87918794941385    3.50729755535144
H         3.33872221820031    0.00000785168859    3.94938244602468
F        -1.17569268426725   -0.00000671974185    9.42193979124047
F        -2.91526487404887    1.07639471894754    8.77150364762450
C         2.36208441117894   -1.25930018552445    6.17546491132572
H         3.44398574523846   -1.29177115356141    6.07179399704859
H         2.12042613905992   -1.27296753310431    7.23422692088035
H         1.94607571313319   -2.15160432405374    5.71420725134663
H         1.87085140623549   -0.87917489670868    3.50729491064078
F        -2.91525927700424   -1.07641245178578    8.77149609128885
O        -2.00567130250906    0.00000106426285    2.26626906731557
O        -4.29805779972185    0.00000740520522    4.01092979979440
C        -2.96227029884125    0.00000042060784    1.43303198571667
C        -4.32458426301686    0.00000086177668    1.64127728109747
H        -4.96520190446910   -0.00000105578943    0.77718885325571
C        -4.92252205487791    0.00000706126545    2.92344711629295
C        -2.46348572508719   -0.00000599483888   -0.02420914681879
C        -6.45017624868256    0.00000419363780    3.00468115138736
C        -6.98895061688151    1.25930843974403    2.31503540233809
H        -8.07085199706074    1.29178397441424    2.41870267462539
H        -6.74728882105555    1.27297215636948    1.25627404656937
H        -6.57293938945931    2.15161182149185    2.77629187749160
C        -6.88100173878843    0.00000611480355    4.47256534007002
H        -6.49772835065221    0.87918833142410    4.98320654317808
H        -7.96559997475341    0.00000785741443    4.54111662890003
F        -3.45117431999927   -0.00000672236718   -0.93142982564140
F        -1.71160348262424    1.07639475016140   -0.28099016554416
C        -6.98895600687348   -1.25930010829390    2.31503821326197
H        -8.07085762091388   -1.29177069829164    2.41870551147810
H        -6.74729469289573   -1.27296721787931    1.25627689626601
H        -6.57294888232702   -2.15160441176682    2.77629649690646
H        -6.49773094885898   -0.87917527097484    4.98320918221148
F        -1.71160904873407   -1.07641247784526   -0.28098260992704

