47
CSD_code = WAWGAC | q = 0 | S = 0 | Stoichiometry = C16H26ClMoNO2 | MND = 9
Mo        2.30095023320977    4.47335550477879   13.65027852723213
Cl        0.88547093445503    2.55529345076625   13.82813735135627
O         0.85804864907032    6.17709026430484   15.52691354439855
O         3.51428166473771    3.43315060036576   15.24808103954891
N         1.42302430330933    5.40364688725387   14.83289358134106
C         2.04331696351864    5.91010591961641   11.85682133264859
C         1.56922455413513    4.61805200273801   11.48555391069222
C         2.69257879649000    3.72224733435682   11.46370831728229
C         3.83441787101946    4.44109910352929   11.85631084404986
C         3.44185994165469    5.79895074517963   12.12888496665221
C         1.27635919903491    7.19738336155047   11.77358504806508
C         0.21854377075757    4.29206678418371   10.92314505974786
C         2.64119355681848    2.32264379766357   10.93203506584248
C         5.24612201646765    3.93016765546774   11.82817975540259
C         4.36742571280889    6.96922515796150   12.29337856222372
C         3.88469381102373    4.54297796463384   14.91235266687141
C         4.99302320362339    5.30669785323972   15.56084450636343
C         4.95514239957408    5.24193133304799   17.10854830392041
C         3.55398388334102    5.60877373417645   17.60017352720076
C         5.97057995358050    6.25340334024129   17.64719763888189
C         5.32428456511110    3.83829424204608   17.58668711985259
H         1.62708828455727    7.91015264768861   12.51764885349349
H         1.40651156558003    7.64037686732168   10.78384828135766
H         0.21372405528586    7.03013200926240   11.93830248684525
H        -0.52974141108793    5.00591733040374   11.26279037836071
H         0.25430212998656    4.31942954527096    9.83164522805011
H        -0.09347053054747    3.29631665981799   11.23346834925709
H         1.83493544586962    1.76201156062672   11.40509919468774
H         2.45679313124460    2.34249557287779    9.85598691497031
H         3.57757940205674    1.79816286188170   11.11137820277747
H         5.30631997860553    2.90704194354931   12.19935146888639
H         5.62081361590052    3.93967081523991   10.80228158552182
H         5.90425547136865    4.55256014796558   12.43186614186953
H         5.32331936142241    6.66600715924229   12.71383815375561
H         4.55591987139823    7.42787394795616   11.32011873755448
H         3.92837154461298    7.72400570899730   12.94297415422378
H         5.93885333302377    4.87895516328810   15.21126280983040
H         4.94392157886735    6.34745389803257   15.23593669438549
H         3.24295634206496    6.57403682629343   17.20566202084945
H         2.82372448929304    4.86158262471460   17.28831679102325
H         3.53882598971546    5.66106276264163   18.68612892000865
H         5.99833044920178    6.20993215179713   18.73301203827130
H         6.96926999274524    6.03888894270299   17.27211486319274
H         5.70062940609879    7.26537835837605   17.35411248288350
H         4.63830075540327    3.10215135855878   17.17382411416952
H         6.33788356794447    3.57979971724117   17.28479168270298
H         5.26675619563381    3.78614638114616   18.67122878148315

