58
CSD_code = WAWHUY | q = 0 | S = 0 | Stoichiometry = C25H18N10NiO4 | MND = 6
Ni       -0.39141125120357    0.87936801913707    9.57624130467501
O        -0.26824465924567    0.51308510414212    7.65370012936341
O         0.96295037557981    1.05815230883987    5.88149376147228
O        -0.17336169809153    1.52150327141091   11.42009579810083
O         0.97484954865808    3.04478623792107   12.56992205527749
N         0.97949829151685    1.95833800245711    9.25443770415169
N        -1.81171991869553   -0.23624459695856    9.87524773573406
N        -1.82471630062141   -1.06616224092628   10.84244006904988
N        -2.91943559861142   -1.82140891409613   10.76765979889893
H        -3.09376704563204   -2.53738213789642   11.45423877303591
N         1.13641403694134   -0.88188166610401    9.97705013020793
N         1.81399958614941   -0.90326975901742   11.04926409976001
N         1.84337557532684   -2.13989801144705   11.55134579142158
H         2.31815229966304   -2.32765873474761   12.41939530230689
N        -1.83600106931759    2.76356965541407    9.30188266080014
N        -1.53198827804975    3.58130517747695    8.37438721020894
N        -1.72896703465621    4.83696876885910    8.78642562077589
H        -1.52300016874480    5.61387580578017    8.17969172402006
C         1.45640655484758    2.04233035111529    8.01688668051082
C         2.51888893995558    2.88495790391649    7.72574115874978
H         2.88664326089720    2.93146653501666    6.71262397835815
C         3.06898646942841    3.64076203553833    8.75183463872212
H         3.89743145698612    4.30588811643104    8.55338842963391
C         2.54574729901609    3.54138387706430   10.03370840661600
H         2.93279846812654    4.11309975063789   10.86273982730238
C         1.48572843450574    2.67422861572804   10.25296061372424
C         0.67536675060022    1.13575382551292    7.05996269911585
C         0.72537170402907    2.41451311592651   11.55924134772476
C        -2.92329259331983   -0.41665099311703    9.09760701400516
C        -3.66384525460063   -1.46791994573626    9.68400242321286
C        -4.86039492278424   -1.91575695403863    9.13485329583914
H        -5.42476620097316   -2.71650684329638    9.58598268374417
C        -5.27851024471509   -1.28418707124170    7.98516834178649
H        -6.20025077323914   -1.59877824031128    7.51925821669805
C        -4.54208814939254   -0.24633364401155    7.39285097155222
H        -4.92053420731751    0.19908908580002    6.48575948848667
C        -3.36107271669386    0.20868189341465    7.92988376743095
H        -2.76711186582948    0.99009718647248    7.48565954300813
C         0.68563256285030   -2.14699415430451    9.70634588600385
C         1.13996230487567   -2.98627554436074   10.75081215802565
C         0.83314656701753   -4.34183841312932   10.78059445311147
H         1.17728663875547   -4.98322140364051   11.57717096056632
C         0.06997462662107   -4.82134358610957    9.73931756870213
H        -0.19318942038010   -5.86868462801124    9.71905779631743
C        -0.37358904092726   -3.99553918686850    8.69471672289925
H        -0.96143477442286   -4.43599975477664    7.90324806189229
C        -0.07442502507717   -2.65419188147740    8.65240547641283
H        -0.39825827617267   -2.00061140215790    7.85747399071558
C        -2.26326124699936    3.46714952662992   10.39627728091722
C        -2.19269287386415    4.84120322502146   10.06654627316073
C        -2.54817524605672    5.83362356329764   10.97204886473074
H        -2.48448204799874    6.88023481559252   10.71765790825089
C        -2.97162319721720    5.40681030784801   12.20980422057696
H        -3.25128550546540    6.13984365872217   12.95161263488214
C        -3.04281554695990    4.04646870200170   12.54564994083006
H        -3.37035354743426    3.77858318072051   13.53844959307683
C        -2.69703805883104    3.05767963858929   11.65694038697816
H        -2.71510799278152    2.01223844534319   11.91403662645682

