75
CSD_code = WAWJEM | q = 0 | S = 0 | Stoichiometry = C26H41AuClN2O3P | MND = 2
Au       18.37587548606498    9.28689162424271    3.09696875571030
Cl       19.95147525201854    9.89583999655381    4.57693374280364
C        16.95660374558062    8.74415222760768    1.80143470122220
N        17.06031142342564    8.16712582066826    0.59391654441014
C        15.81491187422511    7.94015436401269    0.06930165340519
H        15.64668970846011    7.49077734291729   -0.88609182633876
C        14.90698868212859    8.38468461955429    0.97612599655392
N        15.63643800886329    8.87964333526426    2.03112114663515
C        13.42954218894429    8.44054663091579    0.89742746329808
H        13.03029919342464    9.09074025823036    1.67520663652703
H        12.98124899700955    7.44991381632012    0.99468249132606
P        13.00901955944902    9.11962265860516   -0.75856563449908
O        13.32148650791227    8.29505766636008   -1.93031230473096
O        11.46249214869692    9.55797271134531   -0.66830656010700
C        10.48767415509312    8.79446921917574   -1.36523726484606
H         9.63735733366081    9.46601802105186   -1.50970859500184
H        10.89243779480465    8.49763533245633   -2.33791105627994
C        10.08255830392628    7.56026006665985   -0.57881159047139
H         9.27369499163577    7.04590099579767   -1.09017460525695
H        10.93313632257396    6.88679353170666   -0.49760017536696
H         9.75237580781170    7.83926968708119    0.41880958390268
O        13.80121037718628   10.50280347896138   -0.67312086992586
C        14.19474108449288   11.14481416641588   -1.88052737297800
H        15.01948038979926   11.80649246257791   -1.60131601614401
H        14.55627063169835   10.38728650995185   -2.58402070086133
C        13.05047402820944   11.92766018337428   -2.49858409208026
H        13.40299567161375   12.47270059741886   -3.37009857106407
H        12.26117785547034   11.24316563910406   -2.80111012482670
H        12.64469794859771   12.63017408386258   -1.77508823918081
C        18.30890487527875    7.85660957588370   -0.06433178303887
H        19.09909886887227    8.16870751969611    0.62970332037265
C        18.43683178182251    6.35529158399755   -0.32638877030361
H        17.63458273903957    6.02795389333041   -0.99119867283699
H        18.34212772684894    5.81206317662173    0.61623374325951
C        19.78737805851135    6.06014767231304   -0.97225737027312
H        20.58530343102558    6.34154784980983   -0.28228435190431
H        19.87437161839541    4.99012796194493   -1.16766322291577
C        19.93969187365941    6.84344641468003   -2.27270649389536
H        19.17492067431287    6.52110342322970   -2.98316454907364
H        20.91523406561174    6.63782763795311   -2.71573252246275
C        19.79472014596948    8.34027940974168   -2.01487478948610
H        19.88424557628923    8.89154817527538   -2.95236099444223
H        20.59472300789345    8.67404230357972   -1.35109230877241
C        18.44606012522018    8.64372121399436   -1.36897336428556
H        18.35937155851834    9.71193312294984   -1.15870761658397
H        17.64069183576694    8.36553228257532   -2.05224945660863
C        15.09371522839584    9.42534644576815    3.22746041787536
C        14.87914757711254   10.80217970937607    3.31639418305502
C        14.36907653327465   11.30477096644821    4.50626529248809
H        14.20714453291118   12.36593695399013    4.61086684374256
C        14.07852495708535   10.46663719801803    5.56489428322661
H        13.68814712199414   10.87667177464763    6.48423536034338
C        14.29729125211214    9.10705988631588    5.45627934070804
H        14.07840694387769    8.46476438656343    6.29469954446284
C        14.80948674162960    8.56120920811397    4.28740385966778
C        15.22431083660526   11.73418061024579    2.18020405054410
H        15.50689413851024   11.14314814520890    1.30361390375988
C        15.08058344112515    7.07838716144919    4.19441979618992
H        15.42295135111341    6.83654849538222    3.18310303064651
C        14.02769225788643   12.60076880469875    1.78295559183613
H        14.29894153711097   13.23554928569871    0.94268080052560
H        13.71215404743167   13.23993159250420    2.60319013543733
H        13.18944096676466   11.97714708043550    1.48127871467692
C        16.42069606932595   12.60259332766363    2.57835952158987
H        16.72085296204318   13.23456697772785    1.74549551477688
H        17.26604526956828   11.97710610537843    2.86224317359624
H        16.17062063988840   13.23981217129426    3.42267796746664
C        13.81168979660839    6.26603572135407    4.46336175333848
H        14.01015749044933    5.20722511154251    4.31354692444791
H        13.01299192394827    6.56738494698474    3.78788564247204
H        13.46715950435567    6.40524295857895    5.48429079817170
C        16.19660238168602    6.69457661634239    5.16897688830989
H        16.44135691817961    5.64006406386065    5.06320256206869
H        15.89374627411618    6.87747966581032    6.19645250270513
H        17.09124786907947    7.28142436282662    4.96656768928486

