76
CSD_code = WAWLEL | q = 0 | S = 0 | Stoichiometry = C36H30N9Rh | MND = 6
Rh        2.37591656059641    3.60575937064554    2.36071841657893
C         3.47167392511284    0.20158625510223    1.62110615904918
C         3.94469649794528   -1.06004434857175    1.32436504092181
C         3.51688188343316   -1.71524933610638    0.18004934049771
C         2.60783382252145   -1.10076295412508   -0.66835616802611
C         2.12570560060577    0.16009146752165   -0.38498857003026
C         2.55764664088850    0.82460574323203    0.76726723432804
N         2.10249423815222    2.08176445519846    1.09340598185159
N         1.12150842428461    2.62773177127522    0.42828748880245
N         0.93603470678916    3.79343352679204    0.98455817903703
C        -0.98470320696636    4.23893394588712   -0.42652472098736
C        -1.94159046739363    5.13065000950354   -0.86440022763233
C        -1.97308288888040    6.42798209713037   -0.37484198356743
C        -1.03492261262305    6.83542754430961    0.56091514795668
C        -0.07187114232433    5.95484754160042    1.00883459127326
C        -0.03872693400434    4.64638490777105    0.51946654822213
N         4.87864051013051    3.60581352535820    2.36080752884946
N         4.08709378897079    4.00684248350883    1.40413185440468
C         5.97163677317466    4.44356973389240   -0.05685839406776
C         6.44570111130848    4.96463540119501   -1.24264146405848
C         5.57814466327972    5.55293673661879   -2.15093918807644
C         4.22301455199875    5.62056026984385   -1.86663833358982
C         3.73368925579375    5.10332605040016   -0.68479842977993
C         4.60473667387268    4.50858593631342    0.23169757122893
H         3.79302865892923    0.71552637461431    2.51738242762290
H         4.64970403872571   -1.53604737129280    1.98984559402931
H         3.89029533426482   -2.70167974941399   -0.05008943840039
H         2.27372199290691   -1.61085302875620   -1.56001658172806
H         1.42020438928608    0.65128359757205   -1.03676430176380
H        -0.94963551609160    3.22611064350445   -0.79635583980394
H        -2.67225642212994    4.81247102872120   -1.59362068331906
H        -2.72645925051257    7.11899014682070   -0.72180707183435
H        -1.05337908611643    7.84572185602507    0.94227649820269
H         0.66994746507930    6.26788222211510    1.73166692492573
H         6.63403347064724    3.98122060865140    0.65816145844360
H         7.50180155650395    4.91151969920441   -1.46335395222422
H         5.95747198586875    5.95746894618548   -3.07717841807508
H         3.54435986004739    6.08080101842271   -2.56953863554051
H         2.67880798142133    5.16088297123699   -0.45090095546789
N         2.10238036107590    5.12972437580184    3.62800706825952
N         0.93592813741549    3.41804415091385    3.73680714737532
N         4.08706794114448    3.20473760486479    3.31745004350959
C         2.55756125797297    6.38686327869712    3.95417523910603
N         1.12133787189648    4.58377468557213    4.29304769487723
C        -0.03883497674211    2.56510714258876    4.20193043349855
C         4.60473255022363    2.70300236326606    4.48988091852633
C         3.47161409252731    7.00986153859145    3.10034956773929
C         2.12562697546607    7.05137873245519    5.10642883935108
C        -0.98480635836247    2.97261866438616    5.14790275297298
C        -0.07199749831555    1.25662234139867    3.71262610850650
C         5.97163699339406    2.76806347822681    4.77840428601210
C         3.73373323784954    2.10820106604710    5.40638097909082
C         3.94472046380184    8.27144694542967    3.39713273107665
H         3.79291192030788    6.49594495120585    2.20404037953043
C         2.60784353277568    8.31218884288215    5.38984332567923
H         1.42009815842180    6.56020849493351    5.75819268838690
C        -1.94165795927498    2.08091866417980    5.58588586252601
H        -0.94974858481462    3.98547541854730    5.51764441681431
C        -1.03500918400263    0.37605451150534    4.16066094388715
H         0.66977991150410    0.94355787150852    2.98976455431089
C         6.44576275572029    2.24696205991467    5.96414514254012
H         6.63399166896377    3.23046590823991    4.06338146855109
C         4.22312030705913    1.59092155089847    6.58817825878752
H         2.67883923386007    2.05065654797289    5.17253690913806
C         3.51695918960337    8.92663197426504    4.54147875640178
H         4.64974749726873    8.74743139972762    2.73165979031173
H         2.27377782461013    8.82226352621718    6.28153332909922
C        -1.97312398657584    0.78354060621728    5.09644588825022
H        -2.67229229984897    2.39913613497996    6.31512097871750
H        -1.05347452972542   -0.63426413310311    3.77936768680873
C         5.57825854278438    1.65857089118096    6.87243588280127
H         7.50187160716399    2.30009679395523    6.18482016963790
H         3.54450530802154    1.13064310315651    7.29109488246340
H         3.89045630621518    9.91302082231809    4.77166305853720
H        -2.72645355357913    0.09253461067685    5.44351863161676
H         5.95763644869437    1.25398198247315    7.79863255704700

