88
CSD_code = WAWMOZ | q = 0 | S = 0 | Stoichiometry = C40H42Cl2O2SiTi | MND = 12
Ti        2.79827682902460    4.25575331874887    3.55989527307159
Cl        4.59632327846992    3.55865551748555    2.47695057113912
Cl        2.19602952093070    2.27642615626390    4.31662517238133
Si        1.28041135640555    7.17054752683422    3.87534436946139
O         2.88045483461580    8.01612835973572    1.10384260611874
O         0.08396118626801    5.63109699799025    6.54298306591761
C         1.37817305943775    3.65521739968779    1.75048938208696
C         0.79903350712177    4.54503094070326    2.68597405356690
C         1.37200065355993    5.84668067837875    2.50709236979171
C         2.23859558160349    5.75490084906144    1.36314135523835
C         2.21636039749430    4.40671457624150    0.87638711383305
C         2.97418606051855    4.02074386730832   -0.24515866521592
C         3.72423279643266    4.99623212070837   -0.87046540805363
C         3.71281236096659    6.32848976951764   -0.44659823999935
C         2.97399526037568    6.72567364457710    0.65054910101295
C        -0.36109782158966    4.16636653723525    3.56060364315994
C         3.56347379768415    9.02395453729435    0.40100876642656
C         2.95754307326939    2.63407467801340   -0.73737089320095
C         1.75141949282738    1.99604695005125   -1.00917060658622
C         1.72816227887858    0.69404350575965   -1.48438906289188
C         2.93160724096661    0.02965810495050   -1.68137882740148
C         4.14641440249996    0.64556484234978   -1.41664264181600
C         4.14928437649197    1.95226730448833   -0.94928953553985
C         0.42413179259933    0.02605617745188   -1.80592124489871
C         5.43955208703795   -0.08810051093335   -1.61098048546039
C         1.90482227778663    8.96833916352547    3.69176287069068
C        -0.52540284489845    7.50270462757658    4.40593657336217
C         4.46539694988333    4.89129157772732    5.15823361628676
C         3.88921933395447    5.97956632053651    4.47306115186027
C         2.52006416962710    6.12037710211070    4.87476407929959
C         2.29416780698400    5.11449176950525    5.87901831370994
C         3.50306808983086    4.36076954575906    6.05971048459773
C         3.59368284281647    3.32973909857269    7.01984627150996
C         2.49346102994895    3.11999593110208    7.82403608956324
C         1.31830657643255    3.86963310128357    7.69073275394793
C         1.19668613922154    4.85310382037472    6.73115950836639
C         4.70295306560714    6.88185963927423    3.59291809874742
C        -1.01594495750868    5.44432020512940    7.39928090054080
C         4.80710061409988    2.50810756622485    7.12748521762428
C         5.36403006929667    2.21017297587852    8.36751909286381
C         6.50938557272691    1.43564628799726    8.46374019576203
C         7.09452761853421    0.95273034745578    7.30009811477025
C         6.54972977828536    1.22593440613121    6.05237981866128
C         5.40569980340649    2.00477003702263    5.97573162003418
C         7.11691986967428    1.11533223730825    9.79747235446584
C         7.17882500360717    0.67880555180654    4.80679426119654
H         1.07194953857600    2.62756348349804    1.59303730044771
H         4.31227143148898    4.73505923350886   -1.73789197256849
H         4.28913697726179    7.04532757802756   -1.00953834122447
H        -1.28785407777840    4.53194249083368    3.11154106318714
H        -0.27511770597318    4.58669564450610    4.55980507071625
H        -0.42656249827678    3.08004409588096    3.64115780437256
H         4.64549329009300    8.85485131101718    0.40353572967980
H         3.34381822668028    9.95164251094972    0.92758534214485
H         3.21120526756591    9.10210250408454   -0.63219396485464
H         0.82376381192076    2.53384664717828   -0.87094792985000
H         2.92034313014884   -0.98772941840189   -2.04808614090900
H         5.08538558187016    2.44102259076848   -0.72109858460603
H         0.11441303813984    0.28210469937142   -2.81995311531692
H        -0.35773272999093    0.35382398696513   -1.12418521246967
H         0.51593017814466   -1.05578977876131   -1.74382162319439
H         5.29276518775578   -0.98841948659721   -2.20298947206283
H         5.85162430747569   -0.37620581808795   -0.64382680027407
H         6.17103243648413    0.54601990179932   -2.10841464210444
H         2.97990124439235    9.07646729838971    3.64850453650280
H         1.55001218135092    9.54530190592184    4.54074288961912
H         1.48813022932067    9.41456682509869    2.79658916384365
H        -0.96491451089371    8.21285021165994    3.71139646697043
H        -0.53919072146810    7.95683031013745    5.39007284021947
H        -1.16268625756284    6.63060862868358    4.43547905978737
H         5.51453330797177    4.62568748177242    5.13019291873990
H         2.52367369580156    2.34169662931022    8.57182568088832
H         0.50100423397549    3.65243943592013    8.35990971625237
H         5.46827917309640    6.30002919978546    3.07362939651077
H         5.20692029462054    7.63289892365710    4.20688726180093
H         4.08962586734524    7.39496336256757    2.86048653270079
H        -1.76367180191088    6.16933988135941    7.08111507722664
H        -0.74856777481667    5.63481318489593    8.44316161591676
H        -1.42900929452932    4.43411220573681    7.30882926505514
H         4.90659943249188    2.60745600084790    9.26266399255175
H         7.99030243946028    0.35057828362360    7.36919198671306
H         4.95782736596561    2.19943043559691    5.00822506232001
H         7.05660842631147    0.04474823200110    9.99213752659144
H         6.60121767137023    1.64104027281769   10.59720284718925
H         8.16871500684497    1.39738351087547    9.81544783625022
H         6.79614674844525    1.19158825167241    3.92758143117988
H         6.95213458439578   -0.38307830685020    4.70914627145935
H         8.26150685319459    0.78783049576070    4.84026349261847

