130
CSD_code = WAWMUF | q = 0 | S = 0 | Stoichiometry = C54H72O2SiTi | MND = 12
Ti        8.52610242188122    3.98841835544905   15.49067544009369
Si        8.52608658014088    0.70347335833043   15.49064617996316
O        11.82345195959323    1.10895036109379   15.42021838847881
C         9.12348138014814    3.96931310003107   17.91168621789662
C         8.40873115645904    2.84114123013059   17.46139343057210
C         9.25301802898539    2.04031089195349   16.63348212093094
C        10.53999546503112    2.67722100292603   16.64406561565007
C        10.46262198988557    3.86930423302493   17.44491742421011
C        11.60733885267960    4.65479694616916   17.70968544057542
C        12.80571890310319    4.21889743887440   17.18027831127721
C        12.90506481408524    3.05331379590028   16.41286092989007
C        11.79724700360740    2.27679753388193   16.14171106140470
C         7.04675683548777    2.49244848939092   17.98831140122799
C        13.06653603250933    0.60281788062341   15.00853903677442
C        11.54087773604100    5.88407758368130   18.51389154090711
C        10.48401496690275    6.77283849382688   18.36632042970365
C        10.42882152935643    7.95932568587220   19.08667426643937
C        11.45684404839323    8.23104080051775   19.97632528234803
C        12.52810098637361    7.35813726307388   20.15830807235586
C        12.55695982111473    6.18851580939836   19.41850557925277
C         9.24102849866056    8.89013134471213   18.88391783539503
C         9.07477362553042    9.19906891416139   17.38907297900771
C         9.39720746747592   10.21991360110628   19.62716539394567
C         7.98031813400120    8.18923496048316   19.40928710772480
C        13.61600660362871    7.72787960327744   21.15702413278621
C        14.72394703375554    6.67438915837494   21.24081772356561
C        12.99092748089414    7.87301334571324   22.55155168660174
C        14.25573152313518    9.05742726139737   20.73233144960816
C         9.60941796193803   -0.54099149866107   14.52188320928743
C         9.94668416401842    5.37503015727075   14.87375383708512
H         8.78579946957545    4.63892593464129   18.69157276016249
H        13.70378768800478    4.79512460930048   17.34718597348811
H        13.87846414389134    2.77048791767854   16.04361714503890
H         6.38877388599070    2.10874342503811   17.21245652237440
H         6.58618602591763    3.36868321019778   18.44819062873455
H         7.14277472510087    1.72495128776868   18.75994660543953
H        12.85172812509317   -0.34491969247260   14.51672521656387
H        13.73091535212105    0.42653418720640   15.86034285369558
H        13.56134566868282    1.27348717622626   14.29699736891765
H         9.70606254856849    6.53507688191388   17.65647441622925
H        11.43384404741518    9.14233591655296   20.54903272155008
H        13.35697646691925    5.47734366223715   19.53889923520672
H         9.99089688426441    9.62986306931132   16.99068784987510
H         8.26619878634584    9.91213390840385   17.24230502475215
H         8.83947175433563    8.30536497827089   16.81748649786023
H        10.29490151112953   10.74233393840447   19.30403707329922
H         9.43954369483317   10.06802017392217   20.70327770721343
H         8.54083806397265   10.85721627092058   19.41512639151783
H         7.10966444481272    8.82813254800050   19.27627652976797
H         8.08734125400981    7.96449348469274   20.46872582916211
H         7.80364966166031    7.25666523408752   18.87920155447294
H        14.32746985765362    5.71465503259436   21.56379824488571
H        15.47155323191982    6.99066456430388   21.96592035818322
H        15.21903231890893    6.55071682463062   20.28042692097432
H        12.24179017694170    8.65956413509456   22.57092859093287
H        13.75808351340017    8.11610547571701   23.28407905366290
H        12.51379055790318    6.94085858683590   22.84678404761695
H        14.67599358350124    8.96890557508028   19.73259190566564
H        15.05427444469818    9.32734249692132   21.42055972765306
H        13.52767456033727    9.86372358361203   20.72447070115012
H         8.96114894059642   -1.26357358770150   14.03474467877993
H        10.24500853472405   -1.08435189258847   15.21181059526763
H        10.24431237406996   -0.10345108813704   13.76568685171265
H        10.87062602444232    4.81455452573212   14.66691602107884
H        10.20237399847770    6.12949534732343   15.62356235036726
H         9.69254551210258    5.92232967314403   13.95919631739062
O         5.22872619678961    1.10900429567548   15.56113858745605
C         7.92869305205261    3.96934124360340   13.06963183295605
C         8.64344687072189    2.84117612007407   13.51993081429578
C         7.79916119012693    2.04034515485593   14.34784674872651
C         6.51218297969297    2.67725404608057   14.33726335377666
C         6.58955586137018    3.86933247868819   13.53640481316925
C         5.44483931629357    4.65482098293495   13.27162698198702
C         4.24645714676123    4.21892380584746   13.80102857579841
C         4.14711206180476    3.05334765844279   14.56845845669590
C         5.25493092661969    2.27683805701370   14.83962273237583
C        10.00541565332312    2.49247785562932   12.99300140172386
C         3.98563805164010    0.60285909982496   15.97279558826170
C         5.51131083160735    5.88409587536224   12.46741196536651
C         6.56815609649171    6.77287028525831   12.61501903899686
C         6.62336068774859    7.95935444857997   11.89466119806910
C         5.59537355928007    8.23104565946954   11.00496228618058
C         4.52413804609184    7.35812545598785   10.82294035030568
C         4.49526119151543    6.18851170998388   11.56275524663769
C         7.81112779107930    8.89018052802541   12.09746387991560
C         7.97731196287486    9.19912289713847   13.59231502072367
C         7.65495114759937   10.21995771142521   11.35420708660596
C         9.07187146260211    8.18931002032770   11.57214318252997
C         3.43627545447120    7.72784195025167    9.82416961919279
C         2.32836924930352    6.67432573333426    9.74033075813334
C         4.06142390259443    7.87298602240452    8.42967460541452
C         2.79649432031054    9.05737305518605   10.24883100238992
C         7.44274949007684   -0.54100618351521   16.45938286597483
H         8.26637509355582    4.63896276141084   12.28975325375943
H         3.34838809545660    4.79514642478757   13.63410705438747
H         3.17371233203632    2.77052245461546   14.93770151992083
H        10.66339131894427    2.10873377248885   13.76884179267994
H        10.46600197697125    3.36871965913131   12.53315240016410
H         9.90938335429795    1.72501023639659   12.22133859523172
H         4.20044636791492   -0.34487158539445   16.46462265035625
H         3.32127981863870    0.42655933077987   15.12097750068308
H         3.49080369644191    1.27352822637535   16.68432134062040
H         7.34608433614286    6.53512001373462   13.32489558820061
H         5.61838514357670    9.14233623090148   10.43224780595918
H         3.69525797244641    5.47732814163514   11.44233939686195
H         7.06116272103721    9.62989162411388   13.99066662324981
H         8.78586096382895    9.91220894048759   13.73911336286437
H         8.21262007388361    8.30542534702096   14.16390848994055
H         6.75722579300652   10.74235200985321   11.67728695592688
H         7.61267730351545   10.06806607159791   10.27809270891954
H         8.51128971483874   10.85728374453063   11.56629341397004
H         9.94250703959817    8.82822051763440   11.70519940174049
H         8.96490297989140    7.96457155328392   10.51269852782062
H         9.24853026434578    7.25674146077342   12.10223312307916
H         2.72488893904470    5.71459990085650    9.41738383391364
H         1.58080150428756    6.99057821911607    9.01518119087264
H         1.83322908903463    6.55064699303159   10.70069150253611
H         4.81053437859515    8.65956174709052    8.41032987475807
H         3.29429822814969    8.11605347435016    7.69710854638925
H         4.53860530331216    6.94084468672561    8.13447196502313
H         2.37617464680162    8.96884418597071   11.24854389603903
H         1.99799055910691    9.32727297187835    9.56055357767057
H         3.52453036892521    9.86368367762876   10.25673354579447
H         8.09101549960596   -1.26358969785686   16.94652344439796
H         6.80717146970773   -1.08436293291272   15.76944095500159
H         6.80784209305197   -0.10347581785809   17.21557414732739
C         7.10553295818270    5.37504803307897   16.10758368593628
H         6.18157881865438    4.81458609307042   16.31440327984203
H         6.84986700253045    6.12952149425457   15.35777507589941
H         7.35966344272513    5.92233959047560   17.02214818285901

