89
CSD_code = WAWMIT | q = 0 | S = 0 | Stoichiometry = C39H44AuClN4 | MND = 2
Au        8.68801261710324   11.38502658135663    2.02277665135047
Cl        9.40858318722138   11.18078500525802    4.13371823739250
C         6.45565962368826   11.23771977972547   -4.10725185255007
C         7.45913589492196   12.44011253942965   -1.82679598199070
C         5.70624974848689   11.43697445421220   -6.25833190553832
C         6.65772527525964   12.65679703041607   -4.04587353807756
N         5.99366714688856   10.66481098202218   -5.23190730382769
C         5.22400051941657   10.83051536532180   -7.48076962973083
C         7.17921764237388   13.26067565609611   -2.88781224445908
H         7.33162168367004   14.32699463785017   -2.87319850690811
C         4.02917710177553   11.91504271659835  -10.83796762589390
H         3.65949225174900   11.45130807255603  -11.74160057158911
C         7.22877252398820   11.03791567216633   -1.87646409305844
N         6.33872268989278   13.43508479897112   -5.09418940589194
C         4.29106235676299    9.67445232943191   -9.82905776915835
H         3.92405769777475    9.25857845846280  -10.75391142783238
C         4.13874093044736   13.26193455279991  -10.74963829830849
H         3.85740458146060   13.89240275702457  -11.58127553118844
C         6.74034120813527   10.42102698602264   -2.99825607470508
H         6.56852258097771    9.35984199915828   -3.06802548667555
C         5.86008195410535   12.86336047918629   -6.17879870036503
C         4.87340713246884   11.66385620113528   -8.56366399890723
C         5.48480255755312   13.69342433125853   -7.30341657445662
C         4.39416088215135   11.06989206223504   -9.74968312699255
C         4.99484778643388   13.07633724413093   -8.47349935823191
C         4.62785379874044   13.88862073370345   -9.56646934722322
C         4.55520634364129    7.33764159416517   -8.83539059206069
C         5.37632328192161   17.39589270925108   -8.17682161217041
C         5.23167511400043   15.88894793394340   -8.31793900738464
C         5.59532064088368   15.07299304061639   -7.24410030017861
H         5.97502694115739   15.49439145724963   -6.32728736564572
C         5.10538663214830    9.45552242169146   -7.60019810715905
H         5.38858300631744    8.86378222212787   -6.74463903626111
C         4.64375792848091    8.85419609116754   -8.77339848679552
C         5.95621465916030    6.75146844387953   -8.61079390864419
H         6.64089882431675    7.10867005270875   -9.37746180692720
H         5.91935444423287    5.66536590674633   -8.66063657360078
H         6.35363764406614    7.03523732034689   -7.64047839555408
C         4.75316528755345   15.28071260191777   -9.46368811871099
H         4.46030953428467   15.86703732267792  -10.32011084385164
C         3.60323403533998    6.84844454266458   -7.73524530588349
H         3.95786226566574    7.13312635824567   -6.74883872877545
H         3.51994514890965    5.76426062258462   -7.76854548234539
H         2.61244781596605    7.27493022110968   -7.87786367723504
C         4.03363333851154    6.83022954049448  -10.18215593055239
H         3.02948890993989    7.19934191770588  -10.37828591818807
H         3.99380454606654    5.74305892759102  -10.16802863614719
H         4.69061320772124    7.13032723836489  -10.99541241426359
N         7.59035948221975   10.55424970066041   -0.63713077545875
C         8.03944960621761   11.55429821319763    0.14549940440860
N         7.96801580758058   12.69257065470781   -0.57075689586273
C         7.54346993446988    9.16439415018770   -0.26483843944508
H         6.63372436424742    8.72502582924951   -0.68364270432731
H         7.49431052231645    9.11053413411482    0.82571390850179
C         8.30087626025014   14.00484705042392   -0.08124625364214
H         8.78678014812048   14.56199243187094   -0.88719649933859
H         9.00669397831658   13.88639128231479    0.74475289924899
C         8.77582148517159    8.40722434087462   -0.76347767278303
H         8.85610133760254    8.51636481517975   -1.84780567035661
H         9.66633513406489    8.85107696455934   -0.31307836501200
C         7.05683071560155   14.75146646356121    0.40444092773649
H         6.32744904640059   14.80869568310163   -0.40726627047436
H         6.60618656954920   14.18618625867633    1.22313116719933
C         8.70163809543379    6.92711130848827   -0.39887866407869
H         8.61723189034975    6.82946166577125    0.68502861428432
H         7.80526529742213    6.48879681566062   -0.84406939236666
C         7.40326850104950   16.15819025671820    0.88421439917721
H         7.86596982810619   16.71647364551160    0.06664881143051
H         8.13096497780309   16.09104811205715    1.69520044816174
C         9.93138049702124    6.16924237697111   -0.88242894045339
H        10.02968723829547    6.24736888084770   -1.96321222769242
H         9.85725213305797    5.11725441809711   -0.61942136761643
H        10.83133624747478    6.57426994102853   -0.42585360824797
C         4.50274287358075   17.87004281486779   -7.00696361736532
H         3.45938991697858   17.62216583712096   -7.19169432876569
H         4.58555904341646   18.94864652027687   -6.89193627949671
H         4.80344704542657   17.40316542724013   -6.07338260984341
C         6.16652722104066   16.90222254521880    1.37136100169650
H         5.43166726251487   16.98740970801573    0.57370093842106
H         6.43104204598657   17.90291210671930    1.70306825465457
H         5.70932560779415   16.37430527839291    2.20452779073280
C         4.94406275193217   18.15201427539369   -9.43561506608138
H         5.55115592133838   17.86724369711787  -10.29192093544683
H         5.07015507233900   19.22089848459256   -9.27642982786567
H         3.89628102701199   17.96904988860963   -9.66281151204004
C         6.84816286062507   17.72992358845778   -7.89685378420195
H         7.19248179629705   17.26424670837343   -6.97794563334629
H         6.97557301412820   18.80621152134911   -7.80288360154666
H         7.47571651769724   17.37843629064122   -8.71336390934058

