42
CSD_code = WAWNOX | q = 0 | S = 0 | Stoichiometry = C17H23BrPt | MND = 6
Pt        7.88148979221709    3.75648534773393   14.00178807158779
Br        6.56384384430813    1.89742620924150   14.75099281308335
C         6.23273055878688    5.38203880660188   14.38569735585673
C         6.93377961598549    5.18405548614651   15.53105886426657
C         8.08319701390966    6.02431520276596   16.02610725211379
C         9.10807901567574    6.42481396130992   14.94326922322280
C         9.31995936362848    5.36677842599400   13.88227660297735
C         8.59422914524821    5.29738013494666   12.69615621911060
C         7.44988981399195    6.20001876521316   12.30371201216356
C         6.45570256844675    6.53052988023290   13.43668582376974
C         9.13490402248582    2.39062647728673   13.17547404196308
C         8.91132717448864    1.92132369669423   11.88700351773345
C         9.81729769770146    1.02924234105031   11.32398046208655
C        10.92531783287670    0.58802866475978   12.02822076932515
C        11.10765855142621    1.03800078764304   13.32825559796536
C        10.21924507683225    1.92894536667678   13.91497456454088
C         7.69646237250076    2.33782777557160   11.10124116011786
C        11.89705919034099   -0.38064214928892   11.42216282572215
C        10.42922014811015    2.35716194814786   15.34366165135896
H         5.31541009243280    4.81577318619427   14.23707738617899
H         6.52513008043955    4.50176526491635   16.27492943850744
H         8.60113490385811    5.45954366509329   16.80579610972687
H         7.68402253384012    6.92750209452082   16.50007892852204
H        10.06164280826205    6.61860073974018   15.43870328352595
H         8.80681985743648    7.35536745679766   14.45933255749351
H        10.31574582851967    4.92626270019467   13.86806645224364
H         9.08955180795745    4.83445326152911   11.84210318973418
H         6.90533729766733    5.71284873919702   11.48985963827896
H         7.86077796092228    7.13091639670830   11.89715566438803
H         6.79615270192705    7.39997881163462   14.00053038715321
H         5.49970643737829    6.79766338401408   12.98129528108124
H         9.63944583693086    0.66872912101288   10.32006628927245
H        11.95071053144667    0.68062711691833   13.90365441919447
H         7.02043272033970    2.93763595631077   11.72178256346192
H         7.98050854042178    2.91798704621710   10.22295963142951
H         7.15355841022029    1.45702950848652   10.76293951875903
H        11.67463271798102   -0.54886200269165   10.37150984368295
H        12.91585855360301   -0.00561346378566   11.50902183727577
H        11.84842451762363   -1.33691845486243   11.94229800634268
H        10.56780781329594    1.48383202297543   15.97823287367855
H        11.31544006744500    2.98557448876169   15.43537140415577
H         9.55885518110446    2.91424583137918   15.71201646700975

