94
CSD_code = WAWNAM | q = 0 | S = 0 | Stoichiometry = C42H48O2SiTi | MND = 12
Ti        9.85109644002122    9.57127103159299    3.31097138149655
Si        9.85111057506304   12.84037472540220    3.31097924610408
O         8.29300661642743   12.42372772732131    0.40737531443666
C         9.69623887512715    8.16655462690222    1.78689661657593
C         7.44630953401682    9.57713425689163    3.99306443543337
C         8.19038502494116   10.70504338351873    4.39138109153757
C         8.49777873121281   11.50331869882825    3.24673932154260
C         7.85835752127542   10.86159443152959    2.13218328193805
C         7.19582289248988    9.67299644302673    2.59780050420032
C         6.38971648308059    8.89441929660657    1.73750673899199
C         6.25874478927752    9.32618623997629    0.43284962569196
C         6.88828046629296   10.48369870937832   -0.03759014729779
C         7.67533551057814   11.25862926981466    0.78961000433155
C         8.40190310519735   11.05641983668840    5.83563246549428
C         8.02510426951081   12.93671470301214   -0.87180941713023
C         5.69064070582557    7.68948346576208    2.20734320498468
C         6.32194737942926    6.76766050298014    3.04049899755334
C         5.66929782769746    5.62287096223647    3.46651213694329
C         4.36063155587779    5.39931301566195    3.05662115531193
C         3.70688821711989    6.30080477332511    2.22956288635763
C         4.37989990108108    7.43938985656950    1.81132841350347
C         6.36507194895308    4.62453470856290    4.34387484308012
C         2.28530483515372    6.06329969984724    1.81416849230989
C        10.15795503217894   14.08564500088189    1.89047364727444
H         9.42719537222222    8.71007033559023    0.86906820001829
H         8.91344394512082    7.41970453486367    1.95086598487406
H        10.61766170977325    7.61084778697462    1.57726450081625
H         6.94285981813581    8.89970892464953    4.66998958376582
H         5.65872579625676    8.75454541709967   -0.25978239893770
H         6.73036855414997   10.76451100419480   -1.06716679618667
H         9.40274327781033   11.43585094179307    6.02662850018009
H         8.22398413776841   10.18190948315964    6.46385369984624
H         7.68583696913616   11.82753490919779    6.12943948769794
H         8.39456860960034   12.27183008210367   -1.66071341151853
H         8.55582747021870   13.88628543996785   -0.92682857201058
H         6.95457684343332   13.11110836016237   -1.01862840383564
H         7.34739332352306    6.93638896834620    3.34215642842476
H         3.84606569549263    4.50751540105338    3.38718952348100
H         3.87096914326955    8.15474743399199    1.18140059098684
H         6.55817000927348    3.70657466296615    3.78864709567720
H         5.74483291455205    4.36937481826558    5.20171327056184
H         7.31536534762067    5.01522131357593    4.70014579565277
H         2.09758227427770    6.47123064327483    0.82343798031926
H         1.60622202680712    6.55287704347466    2.51325424654817
H         2.05449234606866    5.00045219675090    1.80832325287925
H        10.48814152218733   13.64688988230434    0.96060365233375
H        10.91246599210601   14.79941208645190    2.20816056459073
H         9.24804976905113   14.63944204000552    1.68883891280511
O        11.40921608026521   12.42373434469460    6.21458127540611
C        12.25591232539822    9.57712907962184    2.62890019548304
C        11.51182952197150   10.70503254851736    2.23058142216068
C        11.20443377872181   11.50331026163580    3.37522245976541
C        11.84385918786124   10.86159233479738    4.48977965021406
C        12.50639536654568    9.67299446489963    4.02416423242486
C        13.31250212533187    8.89442052241431    4.88446078702911
C        13.44346845129903    9.32618680825334    6.18911885033183
C        12.81393158493307   10.48369960159417    6.65955647731514
C        12.02688201175248   11.25863100431366    5.83235162758112
C        11.30031502793852   11.05641267468652    0.78632968971633
C        11.67711643295705   12.93672707486344    7.49376417927308
C        14.01158309982702    7.68948666992002    4.41462611995187
C        13.38027855120663    6.76765891805663    3.58147450275522
C        14.03292683044177    5.62286543367444    3.15547041148765
C        15.34159572003011    5.39931469459165    3.56535628316516
C        15.99534090889120    6.30081588251498    4.39240303427627
C        15.32232608438637    7.43939900946824    4.81063835560217
C        13.33714652321106    4.62451978459416    2.27812402469377
C        17.41693064171999    6.06332221008262    4.80778273613631
C         9.54426358959116   14.08565106773937    4.73147849058288
H        12.75936169212296    8.89970114804894    1.95197736455373
H        14.04348521260035    8.75454620567552    6.88175326735619
H        12.97183888905833   10.76451334816492    7.68913367817529
H        10.29947593000657   11.43584749074608    0.59533196195038
H        11.47823344965723   10.18190385073022    0.15810616150461
H        12.01638557779564   11.82752564066010    0.49252698731042
H        11.30764559643136   12.27184963191867    8.28267137095617
H        11.14639679009390   13.88630037432893    7.54877522332240
H        12.74764397140647   13.11111771757968    7.64058600687088
H        12.35483336785360    6.93638489827513    3.27981366292532
H        15.85616348461867    4.50751733006925    3.23478986482777
H        15.83125585726012    8.15476040583399    5.44056288520826
H        13.14404941728476    3.70656732350772    2.83336366158852
H        13.95737732885592    4.36934696554654    1.42028430101878
H        12.38685156961409    5.01520285468896    1.92185493870680
H        17.60466604777402    6.47127033096560    5.79850368633612
H        18.09600222501682    6.55288940247341    4.10867876906207
H        17.64774666610720    5.00047555051917    4.81364201257559
H         9.21410982016367   13.64689610559598    5.66135997808753
H         8.78972617309284   14.79939415280023    4.41380039928195
H        10.45415806470183   14.63947532003592    4.93308737977785
C        10.00596054887536    8.16653679422288    4.83502867568914
H        10.27501664336072    8.71003966980872    5.75286127124669
H        10.78875044548371    7.41968596766968    4.67104012979255
H         9.08454028079826    7.61082805266457    5.04466562688977

