61
CSD_code = WAWQUG | q = 1 | S = 0 | Stoichiometry = C28H27N3OPPd(1+) | MND = 4
Pd        9.40889336616878    2.56150047191301    1.36361237823169
P         7.97894789315511    4.14339959257415    0.71494458022741
O        11.23507893042125    3.65449777935744    2.29305651410051
N        10.74528848739491    1.09841490032329    1.85420297933823
N        11.91744266300831    1.48563857766605    2.42936352119781
H        12.63350296480965    0.80731568980991    2.66619825501434
N        13.26214466750147    3.20925135209431    3.17372222249190
H        13.97628932489482    2.56057467951832    3.45152145906025
H        13.42373767345389    4.19106874638716    3.32196115753983
C         8.34881817712066    0.97868330474203    0.78250235026248
C         7.06303436229476    0.91251751472879    0.28403332944552
H         6.47342514217929    1.81363291442397    0.16204737329931
C         6.50034572129544   -0.31017054089450   -0.06622393548991
H         5.49440685092677   -0.34262820317864   -0.45561029441206
C         7.22502061868913   -1.47899142223948    0.08438308425358
H         6.78785601252348   -2.42703902642303   -0.18759764644925
C         8.51138882190264   -1.43622691778122    0.58905384909294
H         9.05965906973065   -2.35779800038958    0.70919292946030
C         9.08929667558635   -0.21692684094051    0.94534212575243
C        10.43362300935216   -0.10491058525684    1.51444663010262
C        12.09551121005188    2.84185053976075    2.61509811107347
C        11.32338319763477   -1.29222892643532    1.73542292845262
H        12.37595298547780   -1.00114483688286    1.67403673493507
H        11.15015931584739   -2.02610234948661    0.94893568171707
C        11.03798729702260   -1.92763349924195    3.10128020523817
H        11.68379923034457   -2.78814491469612    3.25309346087007
H        11.21115055996797   -1.21869149557181    3.90873859148625
H        10.00358623742804   -2.25656363043316    3.15672136115453
C         7.56253668515444    3.93281286078644   -1.03884427390347
C         8.57106972107479    3.32503108879794   -1.78731605012704
H         9.49197343402359    3.01142311899991   -1.27873077394291
C         8.39999697825230    3.11864940924041   -3.14209694409719
H         9.17953757200553    2.65208103835347   -3.72487587184033
C         7.21599795261119    3.50788390530687   -3.75219530130204
H         7.07820620176089    3.34441893156323   -4.80984565217981
C         6.20728114879388    4.09703471386574   -3.00817140202396
H         5.28482226219964    4.38921949943329   -3.48642991965442
C         6.37508343078647    4.31312670155789   -1.65007883144191
H         5.58266559739035    4.76219503532298   -1.06989744704770
C         6.49697886701378    4.24191097137691    1.75680694419132
C         6.38428924493471    3.29523373095937    2.77331695839600
H         7.16211214598467    2.52988937128326    2.87418789523098
C         5.30680071563880    3.33742453433761    3.63892820987828
H         5.21517721873363    2.60548038490435    4.42693532222451
C         4.34526958673999    4.32610219481478    3.49539127232924
H         3.50225330231860    4.35756284657549    4.16831381073262
C         4.47056857646824    5.28522390015940    2.50237487665979
H         3.72967448615164    6.06457341987544    2.40897160694373
C         5.54947787123851    5.25359731200942    1.63690405751677
H         5.66915764667358    6.02060110965274    0.88457980825043
C         8.65440543863457    5.82244559436647    0.84628864592263
C         8.64329792858696    6.75000698278957   -0.18805705868011
H         8.22902712291230    6.48515491616739   -1.15092328331968
C         9.17031349506678    8.01258994087060    0.02539488790094
H         9.16296415009370    8.73782177800078   -0.77421274459104
C         9.70617718864177    8.34611391163141    1.25848460630660
H        10.11513538496819    9.33228356559043    1.41713265591214
C         9.72362900924791    7.41712463716033    2.28888802019558
H        10.14586139970828    7.68120849039274    3.24680536109251
C         9.20066952234117    6.15555035562640    2.08450749212888
H         9.21105824587783    5.40967887474136    2.87378318416702

