55
CSD_code = WAWSOC | q = 0 | S = 0 | Stoichiometry = C16H30N4O4Pt | MND = 4
Pt        5.90206517017683   11.18730399429304    9.18679818271493
O         3.46990679421410   10.85639325138500    9.95691280354382
O         2.51912012792078    8.89833457640916   10.45141389260705
O         6.81475090902689    8.33086595454364   11.17068644591582
O         9.01179801608506    8.58486335977761   11.54249887371889
N         5.65981862389135   11.71667256517553    7.13919481568857
N         5.84172505772592   13.28878211092053    9.41079009747687
N         5.61434156292813    9.17911649365998    8.89961617421538
N         6.21062019246782   10.79307247709050   11.17814863216580
C         5.01602793155660   13.04442059150659    7.11068723471063
C         3.53554242734187   12.89462099202378    7.46463148544921
C         2.86034944087345   14.25970018235653    7.55091341193358
C         3.55835759670298   15.14915658849245    8.57353230289704
C         5.03448277940229   15.31750152541711    8.21676267303067
C         5.74876724018358   13.96474372794672    8.10654158457612
C         6.25867477139931    8.32565941156499    7.89691485788057
C         5.45137484638670    7.01592797840335    7.97794963269073
C         4.07805473326797    7.43610843436366    8.54508059007926
C         4.17178305554039    8.95209384758205    8.68694189507781
C         3.28151364083009    9.62042015416983    9.84100751078618
C         5.59349696741986   11.62408502411481   12.21784104171804
C         6.27912864236749   11.13319018486358   13.49186746888277
C         7.73265590397088   10.98950707971283   13.03408857715905
C         7.61026943526105   10.54882181344319   11.56663401981862
C         7.86610046420392    8.96566590057788   11.41172599232817
H         5.07130554651443   11.04704834722451    6.64330973587446
H         6.57034789459149   11.74263684542672    6.67616717617471
H         6.51407505653693   13.76439723454569   10.01053092073650
H         4.92414967910029   13.32106359934503    9.86519858302250
H         5.87661651350548    8.71371427476743    9.80363142863088
H         5.80960106971221    9.83309187592250   11.30649026585676
H         5.10309816226444   13.48935418576640    6.10682891145219
H         3.04404336820566   12.30093021026987    6.69070111705429
H         3.42840693989368   12.34879573766314    8.40879022012917
H         2.88760748950437   14.74530424874276    6.57163067973650
H         1.81591177355143   14.12608343148682    7.83002534110551
H         3.08380027499563   16.13068710785609    8.59705177069659
H         3.44561700051487   14.71218799229620    9.56780516962754
H         5.53759513389152   15.93416256312170    8.96508468521355
H         5.11506126144529   15.83342279983258    7.25829656126072
H         6.77487563649589   14.12293985820990    7.74567007314284
H         6.17104942270278    8.77382795699571    6.89970892190778
H         7.31274894642526    8.18487235353699    8.13797802050235
H         5.36581680256523    6.54187867244346    7.00135640380083
H         5.94628572317589    6.32103588753395    8.65328163691401
H         3.25154738815687    7.14533830443770    7.90016740523656
H         3.90139066771834    7.00326643303203    9.52939044981006
H         3.87696305970994    9.44092319753673    7.74423834348709
H         5.83988306466669   12.68063273182693   12.06101565079920
H         4.51120741331873   11.49136967357177   12.20571139362844
H         5.87391306839544   10.16323860794150   13.77956288319306
H         6.16524635769962   11.82397994929426   14.32458002093344
H         8.25460203577189   11.94612190064178   13.11413945067715
H         8.28671736504227   10.25312880339655   13.61328140592888
H         8.31838955278060   11.07793699552971   10.92179517636133

