97
CSD_code = WAWTUJ | q = 1 | S = 0 | Stoichiometry = C44H45N3OP3Pd(1+) | MND = 4
Pd       19.21748686282314    2.00692955396881    1.36850740546094
P        17.83238329660688    3.67328591611751    2.01659017122137
P        20.80692431452096    3.06113013431706    2.63288039944422
P        20.55931403519051    0.19318774243133    1.55646296453257
N        19.83998740930431    1.97624201287639   -1.12391582710709
N        20.98668278007078    2.44347165022449   -1.69238698949027
H        21.15496885111583    2.33917078020736   -2.68860790044398
N        23.13496756212895    3.23421969599160   -1.46145373088105
H        23.86892336241530    3.58383319305654   -0.86890112853597
H        23.11292091117234    3.56836707133996   -2.40888138580729
O        21.97185939667870    2.53585380495451    0.35171902909045
C        18.67175525866696    4.56665572714067    3.42714136834301
H        19.11481113011228    5.47375780115354    2.99899274508706
H        17.93201795697607    4.86938478441932    4.17467590910748
C        19.77769751074242    3.70636896991199    4.04254587737358
H        19.34844550054834    2.84806352422990    4.57205761035024
H        20.37873990946430    4.28803627650688    4.74809373518365
C        21.88770721927119    1.77594472178055    3.41515638096777
H        22.83506246701756    2.20387899965490    3.75059853454462
H        21.34029291321614    1.40444017891646    4.29025691049843
C        22.13596538027765    0.62869529748861    2.43383075350187
H        22.50962980108517   -0.26199071583787    2.95098393969793
H        22.86524672850335    0.94458725255118    1.68858957895310
C        17.78033866809880    0.96458878717003    0.39932510339512
C        16.68695292430032    0.44789089810477    1.08711732526825
H        16.62295942996277    0.54461878870147    2.16639935352425
C        15.65321689452738   -0.20042620265298    0.43156151608916
H        14.81961776523785   -0.59196037447528    0.99592867125631
C        15.68838667273176   -0.33224853791038   -0.94631620982349
H        14.87591916131771   -0.81409904390081   -1.46890610478070
C        16.77174303017113    0.14801951230719   -1.65149144603043
H        16.77658987632104    0.03808608322511   -2.72488020979976
C        17.83622379846195    0.78259139098786   -1.00034357601546
C        19.01864335284031    1.21259968482994   -1.74995520614152
C        22.02673515083732    2.74024332238832   -0.85092173333088
C        19.81207526322776   -0.90847308407933    2.79434278454511
C        20.19237966836375   -2.23693410775120    2.94793568436603
H        20.92617987645498   -2.66664859484425    2.27971661585176
C        19.62013711124930   -3.00366926507653    3.94717857435101
H        19.90927152962583   -4.03738630489264    4.06220496701925
C        18.67865831799408   -2.44932707876581    4.80013225424804
H        18.23469201024907   -3.05365967579673    5.57635128715701
C        18.30431212890273   -1.12257764373839    4.65703067544293
H        17.56956260138274   -0.69381068668982    5.32287435189833
C        18.86875206862496   -0.35445807978158    3.65555463027344
H        18.57610868426945    0.69191960646884    3.51907626253580
C        20.98289391517080   -0.87165990927163    0.16145694954363
C        19.95835621323885   -1.68124955865481   -0.33113303023168
H        19.01446108413503   -1.71987128899329    0.19827195597169
C        20.14955398252884   -2.42408426398320   -1.47941320466616
H        19.35590524689028   -3.05506893643168   -1.85040203668401
C        21.35861905076812   -2.35586642833038   -2.15547994099235
H        21.50866679602338   -2.93457406045878   -3.05424279764808
C        22.37350031997217   -1.54305930589893   -1.67830255460151
H        23.31489870598343   -1.48979071291939   -2.20542471001487
C        22.18837197563894   -0.79634648826443   -0.52704922749936
H        22.98209220174986   -0.15779237006943   -0.16834742426832
C        16.19379252751420    3.24405630326560    2.66241638973935
C        16.04569159801598    2.76743296724450    3.96235845490783
H        16.89906271663173    2.72715071047099    4.62692412523737
C        14.80656159354949    2.34539237566781    4.40801261285290
H        14.69227256840922    1.98497461779649    5.41961312713708
C        13.71371576184370    2.38076627015797    3.55706113033718
H        12.74775267355861    2.05074879021628    3.90742090999420
C        13.86191898505808    2.83205789762973    2.25511861598449
H        13.01254410052676    2.85049830373842    1.58925071538095
C        15.09798979394476    3.25471324776819    1.80370254181385
H        15.22265819079775    3.59633235992873    0.78494432769866
C        17.50105548920095    5.00025138667942    0.83309514502358
C        16.79594246627378    6.14706146795388    1.18469843405021
H        16.40534026745525    6.25324883302352    2.18731403285955
C        16.59338635094273    7.13724031224154    0.24151105954715
H        16.04591769016659    8.02894440590888    0.50689589113119
C        17.08895709809889    6.98653163494603   -1.04531956433285
H        16.92508985295199    7.76334253811958   -1.77671155202682
C        17.78814420136836    5.84295755454673   -1.39638877605951
H        18.16664703902906    5.72920938995520   -2.40167261759703
C        17.99532063080025    4.84806019013469   -0.45755135461622
H        18.53532824290703    3.93567177014032   -0.70293985166206
C        21.78303193276897    4.55269815704125    2.29034789248455
C        22.84187410512393    4.97569276198141    3.08273699993528
H        23.15641702180453    4.39172953157214    3.93616610707630
C        23.49469768200585    6.15823539437938    2.78042703425517
H        24.32107694044536    6.48630900190282    3.39306947222088
C        23.08814800178155    6.92481012171533    1.69992826362439
H        23.60090493325768    7.84678044023605    1.47147047256450
C        22.02270002680343    6.51115874164656    0.91562678687159
H        21.69984302781430    7.11242157914627    0.07824728768071
C        21.37293971457576    5.32715183929925    1.21007412097918
H        20.54529524838956    4.97881955072667    0.60045426781914
C        19.23954670197354    0.75922064612503   -3.17085893967058
H        20.30908205373192    0.59599152935403   -3.34067023720869
H        18.75339111791441   -0.20214458391008   -3.32893336953192
C        18.69897940244811    1.78678493885339   -4.17077891739756
H        18.87888851412378    1.45143801331910   -5.18933430150504
H        19.17496134387362    2.75684180558482   -4.03748863555471
H        17.62856635695658    1.92028675953902   -4.03532400333911

