43
CSD_code = WAWVOF | q = 0 | S = 0 | Stoichiometry = C12H20N2O8Pt | MND = 6
Pt        4.98243323835410    2.37513912063531    1.16935780909998
N         4.78850596615144    2.12081291799810   -0.88976594945311
C         5.25010815864886    3.34973405676126   -1.54467690424325
C         6.46423710748731    3.90222184738233   -0.78926697868678
N         6.13847928603335    4.03361739112042    0.63583263218437
O         5.41778631107905    2.68530535371257    3.10290796234375
C         5.15434782698458    1.75233795729924    3.97665775142237
O         5.90032958832917    1.53480100965813    4.90546831675577
C         3.81587856972941    1.03159940670614    3.83202979212130
C         3.33449352603092    0.37038554751158    5.13297888800844
C         2.24581566124551    1.44412440041670    5.27641967855555
C         2.61465676801427    2.01281172742933    3.89901938571873
C         3.73661887173142    0.13053328158990    2.59709437511204
O         3.40902135056110   -1.03024056968852    2.68090245692072
O         3.92630023309018    0.68835944336179    1.43704706853815
O         6.59687070622504    1.10749935898317    1.25777050423237
C         7.70978285758871    1.51980248925416    1.74804663231213
O         8.10829070448474    2.67958134969537    1.70034129543729
C         8.53963423478952    0.42672294179191    2.37966073389326
O         3.30827790411027    3.59074784592071    1.28732452908396
C         2.28367303835095    3.40799812975070    0.53984460116768
O         2.26717321504575    2.74090937620406   -0.48771832361488
C         1.04481156953271    4.14648120339875    1.01209533168282
H         3.75825162596851    2.01035631903098   -1.01185425866332
H         5.28566236721103    1.28630595388897   -1.19772599531576
H         5.50374843555364    3.17050763499918   -2.59431037022541
H         4.43151083612696    4.07488606614312   -1.50451851600871
H         6.77466254092511    4.86095946913863   -1.21629645079669
H         7.29785657809844    3.19820160427191   -0.87408157480926
H         7.00115876817360    3.85939378610937    1.20986605248692
H         5.70780527665253    4.92515377219037    0.87245100895425
H         4.08854293607670    0.35255814976862    5.91601631699835
H         2.95737054673244   -0.63534228700267    4.96119266551972
H         1.22953344550166    1.06436375253642    5.35679567217734
H         2.43165163958562    2.14058455704260    6.09121676203181
H         1.86968271136907    1.81586982718220    3.12869234618217
H         2.88774258822988    3.06704686935662    3.87107593083352
H         9.59628376344734    0.66370640396986    2.29867846625565
H         8.30937134344824   -0.53512257282505    1.93172985119380
H         8.25815547698009    0.39978632147292    3.43265804048453
H         0.52411874360619    4.56864725968298    0.15728684471490
H         1.31334080168875    4.91741845091441    1.72699856012209
H         0.38812288102796    3.42453307523808    1.49285705926968

