59
CSD_code = WAWWAS | q = 0 | S = 0 | Stoichiometry = C10H26N12NiO6S4 | MND = 6
Ni       14.25490173625051    0.00009825119980   -0.00003913382488
N        13.06067130141736    2.08503911976997    0.47694413085027
N        15.67869054575744    1.15097635807813   -0.93692923066542
N        15.24435743613724    0.11443365310487    1.60357401250560
O        15.72494431902516    2.58530496531858    1.51292200259633
O        17.08712927908619    1.12444201438595    2.96918984864498
S        15.82905110420985    1.38682842007967    2.32656234426467
C        14.60790778950496    1.64838339601393    3.63696234233940
S        13.18013470058986    0.66580011017878    3.50012540096513
C        12.57256068848828    1.50796468324495    4.92358059811740
N        13.48564485360136    2.40036958800093    5.33699794235341
N        14.61461539830425    2.47708387345466    4.60872912148818
N        11.42054520750305    1.30919638275749    5.48359738351183
C        10.63625321956905    0.38106553012371    4.86703155349605
O        10.98822638576563   -0.21862760705733    3.85486964961209
C         9.31228480153243    0.16472510702080    5.53778252154760
C        13.32633707719974    3.25022677059786    6.48661202850710
H        12.70842937061824    2.62489447216951   -0.30434822978781
H        13.85530479334486    2.58124102005049    0.87797970591207
H        12.32700348711041    2.02681048059939    1.17299267514319
H        16.51505541100063    0.63245221459213   -1.19133492214175
H        15.92273332532159    1.85325789755638   -0.23319822459064
H        15.34486832802170    1.61922184103787   -1.77407232552279
H        15.76802771781144   -0.68711518463495    1.91385941029703
H         9.48135744205843   -0.31288630635823    6.50057341188003
H         8.68014614642962   -0.46750146814206    4.92145949723420
H         8.83481158605695    1.12384004874142    5.71864527234211
H        12.34037438427168    3.06136499502942    6.90416107591555
H        13.42047010210825    4.29344745578105    6.18553742174888
H        14.09867851806479    3.02374766252730    7.22200287768657
N        15.44940034780104   -2.08475614918953   -0.47636696378354
N        12.83067725639732   -1.15038076737809    0.93672448825305
N        13.26550629865006   -0.11433814995877   -1.60356740071463
H        15.80104192685402   -2.62451962297544    0.30525969254526
H        14.65494922108993   -2.58095240252877   -0.87778220059683
H        16.18353231765171   -2.02676372236304   -1.17194199155814
H        11.99409248985063   -0.63167997364005    1.19007791269164
H        12.58717828891419   -1.85307869816573    0.23321775553580
H        13.16363458791129   -1.61811471784449    1.77450664778286
S        12.68120889163044   -1.38693364148477   -2.32655724381336
H        12.74193367059686    0.68710636014812   -1.91427963947701
O        12.78575668809530   -2.58533996279207   -1.51285774159799
O        11.42302781607701   -1.12480962210029   -2.96907194213139
C        13.90235372634508   -1.64835426238450   -3.63697894386246
S        15.33024254250934   -0.66588179834238   -3.50027351639987
N        13.89551327660586   -2.47707394526469   -4.60872529328851
C        15.93775777585569   -1.50835969288952   -4.92359921198577
N        15.02453088232217   -2.40062845292278   -5.33696413351129
N        17.08981034423724   -1.30972675282440   -5.48358976636187
C        15.18332050070742   -3.25018187103183   -6.48687923767685
C        17.87407097130398   -0.38151510890148   -4.86711623480446
H        16.16927937491069   -3.06161506061206   -6.90456223041556
H        15.08879689867190   -4.29345764316044   -6.18612234627222
H        14.41092799674044   -3.02315178223824   -7.22205585174877
O        17.52197038330178    0.21833101284024   -3.85509248080414
C        19.19807996572400   -0.16512708317586   -5.53775901303267
H        19.02906973044902    0.31108753591704   -6.50125545824606
H        19.82957998250289    0.46829626804860   -4.92200911881006
H        19.67623939003597   -1.12416603802936   -5.71714869822675

