43
CSD_code = WAWYAU | q = 0 | S = 0 | Stoichiometry = C22H16CrO4 | MND = 9
Cr       14.85947162201968    5.90763462333973    2.06740714273909
C        13.63025780831685    6.35534605581406   -1.14529214241904
O        12.47869951867955    6.97135971687848   -0.58539832774877
C        16.09689180909418    7.19639899789364    2.41790813251905
O        16.82987471785246    8.05036543960030    2.68330981198396
C        14.78580921088971    5.86954333826237    3.88834829213692
O        14.74246709275308    5.92658916016855    5.04077209754368
C        13.73789280949414    7.30739812015662    2.36027157065368
O        13.08003336101433    8.23234644477942    2.59486163693885
C        14.30113116371725    5.49292407135008   -0.07948444624448
C        13.46282808287731    4.71714332775097    0.75436346554212
C        14.00689901979935    3.83266988466369    1.68035034009113
C        15.40736358246651    3.70760989928787    1.79221519221390
C        16.23973283484004    4.45736210881473    0.96595802853381
C        15.68666960297011    5.35703594864955    0.03036840858514
C        14.58501057682865    7.42149100194066   -1.67654109471056
C        15.07219137460290    8.38216806492295   -0.79330649216721
C        15.92562776455930    9.37587044349732   -1.23644581569051
C        16.30123127584292    9.42804080356438   -2.56822356839421
C        15.81633718230686    8.48039337488527   -3.45191027534275
C        14.96258466033097    7.48290289436403   -3.01106819920653
C        13.14982779797820    5.42473901784659   -2.25375266796812
C        11.92555749492566    5.64998499593578   -2.86682030777069
C        11.48319766098993    4.81042313620425   -3.87383799834627
C        12.26056900025102    3.74073193816518   -4.28183348150940
C        13.48573010978386    3.51484815933031   -3.67762066914376
C        13.92869469557135    4.35022643804555   -2.66810985401967
H        12.75070504106809    7.70695560843564   -0.02370275843776
H        12.39116385527779    4.77482395139415    0.60352052917635
H        13.36029930381899    3.19015347373237    2.26562295675084
H        15.82889359974700    2.97234116274353    2.46720444160795
H        17.31286488484163    4.30997298967490    0.99282351269176
H        16.34172003931385    5.88384558971056   -0.65470190580458
H        14.80263227068559    8.34988627561607    0.25496693269376
H        16.29702459364541   10.10665247009369   -0.53466150537470
H        16.96732975211341   10.20366072983389   -2.91491716497749
H        16.10056733779634    8.51431235793271   -4.49323255622824
H        14.59001230831974    6.75270771666379   -3.71342183115472
H        11.32364241824275    6.48332546240800   -2.54234856651997
H        10.52793327131796    4.99531914836809   -4.34216501553604
H        11.91567220090891    3.08533675214928   -5.06770695649356
H        14.10018359519710    2.68380174198820   -3.99186706646571
H        14.89027369694809    4.16515716314312   -2.20970182472657

