40
CSD_code = WAXGAD | q = 0 | S = 0 | Stoichiometry = C14H19MnN2O4 | MND = 7
Mn        7.99142721212153    2.74521595658302    1.59683016284793
O        10.97811241007733    1.18740814325449    4.00093894062230
O        10.76570559385070    3.52733698630460    1.03358769524877
O         7.06490056635387    3.06214663472528   -1.16490829019391
O         6.95904225359048    5.36200001097973    2.45164017744716
N         5.21904062322703    1.38718229009571    2.00877302480202
N        10.46176513148986    3.22712671562960    4.78230877628011
C         6.51423950322732    1.60158745598947    1.99459739961143
C         7.54939610351129    0.63269297754181    1.83033231946135
C         8.72848155279940    0.93129594793059    2.53128035190396
C         8.75687883263519    1.91437908136584    3.56243670568375
C        10.15977835084050    2.09116115730154    4.11332373722960
C         4.27954818001064    2.47650746152566    1.87090771267653
C         4.59902081217771    0.08997434979265    2.18519561082228
C         9.64343100333609    4.40850347363628    4.86596091427957
C        11.76099318038830    3.34318946695085    5.40550518903543
C         7.46348655962038   -0.59000754693246    0.94858705040620
C         7.71247639307632    1.89861766254350    4.67775761003891
C         9.67282978146315    3.23744904903343    1.22249141860826
C         7.45654032342332    2.95740659412333   -0.08593600971643
C         7.39806304453630    4.33766300495413    2.13664830572186
H         9.65363043311006    0.40131659099973    2.30074601447750
H         3.63076412316933    2.53043471847081    2.74824940145973
H         4.82366875526023    3.41371129838950    1.76362627640496
H         3.65871350096612    2.32230944755285    0.98579174829947
H         3.80233674272921    0.16891909544502    2.92811223908295
H         4.15890033939609   -0.25977993092130    1.24764235074868
H         5.32820949680862   -0.63795974016353    2.53167172656038
H         9.13196635625953    4.46758062584067    5.83183818331026
H        10.28049018769777    5.28875528226771    4.76110527700315
H         8.90861281895478    4.42499318720563    4.06261321506774
H        12.27140440575797    2.38678278182564    5.31358441687700
H        12.35547772063269    4.11615795845015    4.91254333248945
H        11.64546933194638    3.59986426665318    6.46072779575689
H         8.40315450998521   -0.73611656029350    0.41587976845122
H         7.28763354764078   -1.48392622089280    1.55182413713119
H         6.66351754307731   -0.49833539833619    0.21546200182683
H         7.34188377061367    2.88599026373232    4.94134483869920
H         6.85714646485748    1.28269687643291    4.39724600299405
H         8.16566253937907    1.46146858401121    5.57163247054178

