53
CSD_code = WAXGIN | q = 1 | S = 0 | Stoichiometry = C16H24CoN10S2(1+) | MND = 6
Co        7.07708276784640    1.04384303194808   13.52622280457189
S         8.53745855334653    2.33529439297249   14.68533877602178
S         8.80993209560694    0.09993633157390   12.40717178394893
N         5.89648584281467   -0.28410048575029   12.77639007709096
N         7.17704713036425   -0.12015931960468   14.96821842541259
N         5.18010177988777   -0.58178162660309   11.68773139827402
H         5.14897844472000    0.03861046638579   10.89202551089020
N         7.90496952972912    0.11486726516421   16.03967457727927
N         9.38097767162229    1.56001634658705   17.04766283791222
H         9.93991815632355    2.39593860892565   16.94839344538267
N         5.62221653775690    2.08560095523425   14.24374737084326
N         6.95937543021235    2.20443807277787   12.08254353992154
N         4.83941288016174    2.22616055616907   15.31811269269215
H         4.92909874746570    1.61789680985425   16.11874612655062
N         7.75131632118232    2.13858776553187   11.03274115034821
N         9.56645310105831    1.08557387465393   10.09547486840854
H        10.26077384497136    0.35759206524536   10.18749075202597
C         3.72856709548473   -2.35336184876782   10.73462728648004
H         2.94137295098240   -1.65616770922639   10.45175926585693
H         3.27323025682702   -3.27875313294923   11.07303544412807
H         4.32687246264613   -2.56523545877355    9.84913081377353
C         4.57438145939592   -1.78460431520224   11.80841520008921
C         4.91992170495240   -2.28230605734834   13.04810154616721
H         4.62234623978540   -3.21478037305239   13.47857270954755
C         5.75629730456577   -1.31214638282923   13.62505890587345
C         6.47409124130050   -1.20303907273795   14.85338678886850
H         6.46354011466031   -1.96702402848317   15.61740179890735
C         8.60901982798069    1.22673517391232   16.01989256794247
C         9.66396397736326    0.70409181115400   18.17972545200550
H         8.98563674894420   -0.14691859178464   18.11871151241289
H         9.45848838790013    1.26491869475585   19.09654167787914
C        11.11523777043041    0.23924022127700   18.16705895706413
H        11.30249421355586   -0.40236496227710   19.02267890793341
H        11.79206544537356    1.08895856021210   18.21883834280845
H        11.32533285709361   -0.32073825903835   17.25949851650453
C         3.02716168852615    3.64970060930346   16.23550139194072
H         2.40079097841572    4.46578085701126   15.88928061294932
H         3.55110859733511    3.97176614608304   17.13473420835330
H         2.39187935651833    2.80531997419018   16.49871487125593
C         3.99344965013162    3.27174482841133   15.17951376311026
C         4.24642234701216    3.82805980961463   13.94236791411489
H         3.76491400676880    4.67454935989745   13.50083228513960
C         5.28115888320291    3.05765134484514   13.38617407624855
C         6.03236745580188    3.10564322899375   12.17391413897594
H         5.87392656062763    3.84944923763243   11.40636635965327
C         8.68430561845451    1.21104011159366   11.07853086166472
C         9.62628094344563    1.92142858089819    8.91648508804281
H        10.56786528487734    2.48003923246316    8.92677853383431
H         8.79702505867353    2.62626507338124    8.97783520948741
C         9.53831518837556    1.08083364016254    7.64928832722806
H         9.58890528377317    1.72569393252521    6.77726150182230
H         8.60217337597410    0.52914681369855    7.61950890638240
H        10.36209082777667    0.37266783938817    7.60079011797968

