95
CSD_code = WAXGUX | q = 0 | S = 0 | Stoichiometry = C46H41ClN3OP2Re | MND = 6
Re        9.61373880345715    1.11191263898072   17.85529412642256
Cl       11.65819877905403    0.06532038058680   17.30259860077384
P         9.42657695252675    1.61051174067583   15.47674634801209
P        10.38979979213441    1.14267042132737   20.15413033296794
O        10.58672004665559    3.05754150571520   17.94236433327239
N         8.59470468497142   -0.27969040102028   17.88357158887365
N         8.03775316149437    2.59183883090500   18.31291194221176
N         8.46215303981772    3.87021220714169   18.09531175936208
C         9.75519779124291    4.00529177976512   17.91205001200854
C         6.82078897354263    2.45006108057028   18.70631521955672
C        10.24257632215770    5.37837174279890   17.65967375947310
C        11.59693948438286    5.64947063920203   17.81560291141507
C        12.08543787975528    6.91288297127761   17.54332489538578
C        11.22709542125174    7.90746976138193   17.10559310899783
C         9.87607340101218    7.63941416561213   16.94889992238338
C         9.38123749879252    6.38004948281240   17.22682452235442
C         5.91344119394776    3.62710342029871   18.89856829381937
C         6.23106349735039    1.11808259063224   18.99695353354246
C        10.44742464061880    3.03880638833335   15.00984664351147
C        11.80481215371405    2.95429221188314   15.32044437519128
C        12.63814543195358    4.02728819837013   15.07359140398705
C        12.12810593477996    5.18966906228203   14.51639896664826
C        10.78417418289999    5.27125912375400   14.19678284231984
C         9.94022358807516    4.20203768097006   14.44416231188882
C         7.77341026120935    1.94818046669267   14.78697760205726
C         7.03220700815110    3.02234474166826   15.27790395941993
C         5.76384147402840    3.27589721509239   14.79077135703138
C         5.21489200934754    2.45637839320964   13.81816240748837
C         5.94079087345562    1.38043112762205   13.33643234360236
C         7.21235271776670    1.12366790442581   13.81746539544278
C        10.05014353306477    0.27416316480763   14.41584528908518
C         9.82237110162673   -1.03774489916592   14.82277893071824
C        10.26219767425777   -2.08599517421037   14.03661409876901
C        10.92833077059728   -1.83030890524291   12.84799253310036
C        11.15248211520570   -0.52504362735558   12.44229140539669
C        10.71402095073312    0.53063503427770   13.22205120202155
C        11.74061137207725    2.31948482808537   20.46557955146569
C        11.70542218600177    3.27589421086413   21.47407536422530
C        12.75905156779420    4.16199666031149   21.62031316205699
C        13.84873181246852    4.10095415504392   20.76838345141822
C        13.89413360208066    3.13637086039214   19.77403576188588
C        12.84804927429541    2.24618662747216   19.62275264797513
C         9.10089935432048    1.55720831344418   21.36993678778830
C         8.54297236431589    2.83535059358931   21.35853017611872
C         7.49848666062134    3.14925818409479   22.20731225738825
C         6.99146571720581    2.18842944859263   23.06745715985315
C         7.53245593962064    0.91326366277686   23.07426740642627
C         8.57883704998286    0.59437155145717   22.22710398019458
C        11.06947518066757   -0.42846375450525   20.76378490512538
C        10.62422905290952   -1.61276642890162   20.18529040331945
C        11.11437964263603   -2.82397752771546   20.63859845124528
C        12.04692202479135   -2.85617197459210   21.66322092831494
C        12.49034203016305   -1.67622726101107   22.23888705317087
C        12.00446583418710   -0.46068876840056   21.79267641740624
H        12.25585138686076    4.86162062087604   18.15260213110487
H        13.13822812967647    7.12117331637371   17.66879923058744
H        11.61002050849159    8.89377242400790   16.88584339595111
H         9.20874617432123    8.41726830831600   16.60607531628023
H         8.33233858162939    6.15502764465809   17.10792713285626
H         6.48757830608170    4.54892043386148   18.92805302538276
H         5.20820172896274    3.67811790441147   18.06902897713540
H         5.34566952535820    3.50820231857771   19.81889735528136
H         5.22915165099137    1.05760278156885   18.57811469445662
H         6.85720322490301    0.32427304037991   18.58398840804841
H         6.16173952725939    0.97579084877659   20.07544899091220
H        12.19421411459982    2.04764283365912   15.76799898702023
H        13.68701759787708    3.96094359200453   15.32384743599991
H        12.77739303707147    6.03348331249877   14.33441415963031
H        10.38508180647136    6.17549898172976   13.76062296157327
H         8.89181444390079    4.27464160101739   14.19172098434556
H         7.44827749417431    3.66436256817018   16.04173662298341
H         5.20073540294623    4.11640272584126   15.17099476392716
H         4.22274138459746    2.65432449992010   13.43999731342467
H         5.51517180741734    0.73579850840175   12.58150844168147
H         7.77127257453439    0.28071444633649   13.43926266410863
H         9.31729227780644   -1.21140451647099   15.76704466115651
H        10.09378749068615   -3.10380263198778   14.35479956206835
H        11.27951994793632   -2.64994108777415   12.23819898662292
H        11.67413804480802   -0.32697601830331   11.51700258154640
H        10.89150168217568    1.55030436902612   12.90666993557670
H        10.86294441199206    3.33017198514752   22.14946501170999
H        12.72416130041298    4.90648867919094   22.40289481654566
H        14.66143820310214    4.80411294419711   20.88024434158178
H        14.74480624459423    3.08099393899668   19.10985386145080
H        12.87435160362264    1.49916867794764   18.83954416891524
H         8.93031159664712    3.59004092111517   20.68657832943810
H         7.07797312211164    4.14438639125021   22.19597756461886
H         6.17395249479632    2.43353493275597   23.72951756116696
H         7.13569294706982    0.16205310650039   23.74129429874220
H         8.99423512318148   -0.40256193035339   22.22727378324958
H         9.90575957944166   -1.56111925611978   19.37386622928477
H        10.77405419602723   -3.74366178112245   20.18708674584111
H        12.43487529389293   -3.80218071076350   22.01180529895130
H        13.21992578108840   -1.70288350480598   23.03540107981055
H        12.35237643937448    0.46164633320996   22.23864404527754

