90
CSD_code = WAXGIL | q = 0 | S = 0 | Stoichiometry = C43H38Cl2N3OP2Re | MND = 6
Re        0.55000346137781    1.42723505355055    8.95900612688236
Cl       -0.87360566353617    1.78968543086725   10.83381981711401
Cl        2.45637116009580    2.14520548848037    9.96270413068646
P         0.25309616646284    3.74123434976827    8.24595456796595
P         1.05703334160821   -0.73588309307804    9.97023087384102
O        -0.12224340668423    0.81694972812972    5.21269493720753
N        -0.74038471628510    0.87799847973654    7.88900720964848
N        -1.51853003919519    0.56679968414094    7.00191191689279
N         1.95267620632486    1.04700949884572    7.13738212018934
C        -1.24155377418102    0.56641573232357    5.66223305753249
C        -2.40872252629677    0.25141557079164    4.82020056816672
C        -2.24711250638846    0.19333222345199    3.43717992208858
C        -3.32439294674936   -0.09832678158835    2.62309639081777
C        -4.57095372201461   -0.33225679203598    3.18191717437692
C        -4.73855137313957   -0.27180423680584    4.55732979106956
C        -3.66490504925505    0.01911438888387    5.37639094995820
C         0.89131661971399    5.04263505335785    9.34571476644960
C         1.52011540628988    6.18775424329568    8.86786339928108
C         1.95091292963919    7.15762966837429    9.75509984723345
C         1.75678640968674    6.99549171106389   11.11682964752082
C         1.11943088425081    5.86214625550495   11.59367708666252
C         0.68324418662309    4.88982182423613   10.71313837931943
C        -1.44379139051788    4.34398482022871    7.96812426082952
C        -1.63704232269129    5.62286404615932    7.45137449673143
C        -2.91704825516485    6.09591159744752    7.23778540121931
C        -4.01135226102785    5.30032042404876    7.54188880101448
C        -3.82219264582998    4.03390282388676    8.06714996601098
C        -2.54161258084595    3.55451393590315    8.28423059405278
C         1.06856241221822    4.04123773239145    6.65313873741779
C         2.45799388894211    4.16412526163874    6.62354632267771
C         3.12023720856510    4.27816571273429    5.41542088323509
C         2.40431683904503    4.25020727932160    4.22847351428960
C         1.02761551457305    4.10016333312344    4.25247023341595
C         0.35905930905108    3.98969822462625    5.45836053512146
C         2.02254354297126   -0.71593282828013   11.51412359902618
C         1.64594323196837    0.18791203362291   12.50340950499453
C         2.32786551708884    0.22522558379275   13.70512257944170
C         3.38323624134770   -0.64229599869230   13.93329931914529
C         3.75126942294074   -1.55261473640087   12.95694557513606
C         3.07591425468740   -1.59383214466726   11.75012804503208
C        -0.33914568247128   -1.80535117389725   10.44669286300927
C        -0.10932584873626   -2.94356043256432   11.21518151256094
C        -1.16497632859126   -3.76191531496847   11.56939440276785
C        -2.45332844908549   -3.45006776511667   11.16351497213494
C        -2.68473266842251   -2.31714423035999   10.40209497520819
C        -1.63161960736115   -1.49408499946388   10.04308421482873
C         2.03345873015927   -1.79648858547707    8.86476080059934
C         1.47480266163172   -2.87385684726694    8.18774413891043
C         2.23853405746533   -3.59449844186344    7.28570984258433
C         3.55559117417865   -3.24025296614340    7.04404329021460
C         4.11238560229483   -2.15221443257480    7.69912314171091
C         3.35357700933627   -1.42718229832423    8.59916223198182
H         2.46360504008500    0.16990307450219    7.20539921875779
H         1.37363142452869    1.02298945630750    6.28551678175566
H         2.62562220535577    1.80538777178583    7.06407892246392
H        -1.26664599853323    0.37881731065995    3.02406660055443
H        -3.19529856105372   -0.14459271563590    1.55154547597396
H        -5.41341585198348   -0.56116258355031    2.54544057306675
H        -5.71238153695732   -0.45253700108562    4.98869436593424
H        -3.78070135839396    0.07094396807254    6.44791314432053
H         1.68412993339859    6.32231590070965    7.80743859136729
H         2.44428728887547    8.04303095654455    9.37998024509802
H         2.10332048098825    7.75323604897768   11.80451857688984
H         0.96432694164421    5.73269565645082   12.65466507566427
H         0.18563161282667    4.00351442290384   11.08300405607088
H        -0.78250246914616    6.24196390673072    7.21495802879002
H        -3.06374364956584    7.08729239917144    6.83412141459542
H        -5.01087130994430    5.67312313685043    7.37220321893382
H        -4.67373551317004    3.41684863142916    8.31201941077422
H        -2.38849073797553    2.57244725541692    8.70760232095590
H         3.00945236146582    4.17269948815955    7.55585860765153
H         4.19557448096903    4.38460849951222    5.39739156467652
H         2.92280305986594    4.33849617881356    3.28521563731136
H         0.47163337709077    4.06272836738831    3.32773122000025
H        -0.71360206130492    3.86135659651473    5.47660678992925
H         0.82246018489754    0.86602496434886   12.32499647905659
H         2.03593019505950    0.93590446295142   14.46426282764278
H         3.91952794244623   -0.61012428007919   14.87058205237270
H         4.57100400608007   -2.23485899409848   13.13250797209412
H         3.37520725151735   -2.30793382537877   10.99506349530168
H         0.89519848217369   -3.18480795343608   11.53524773467822
H        -0.98368104551095   -4.64396187666673   12.16640585409705
H        -3.27625637162007   -4.09012677801078   11.44618039295625
H        -3.68859502216508   -2.07072607388075   10.08982159075713
H        -1.80509706378049   -0.60195029359363    9.45792174938090
H         0.44574698697686   -3.14688667280182    8.37207549306693
H         1.80276806285386   -4.43633710659809    6.76811076610203
H         4.14841800792309   -3.80786139300422    6.34232508779327
H         5.13711439630057   -1.86924666811195    7.50553801370498
H         3.77685520168288   -0.57315733246084    9.11420921326518

