65
CSD_code = WAXKIR | q = 1 | S = 0 | Stoichiometry = C20H36AgN4O4(1+) | MND = 2
Ag        9.63143890266063    5.60356238750153    4.41865243873730
O        13.16162371177705    4.75159180650452    6.63811407738701
O        13.84905150728189    3.97535930995936    4.55002413004016
O         5.89808836011626    6.53157062754201    2.35847794063463
O         5.52596682721782    7.34925801857157    4.50896205032786
N        12.48317146259397    6.28244637331536    3.43551842388044
N        11.22851085807317    6.30016388527409    1.69922363815218
N         6.78320688649694    4.97352689987734    5.49925637100512
C         5.50004117958056    7.52544767571796    0.23028633861810
H         6.22606225086597    6.86305358648645   -0.23279191111424
H         5.47215918154284    8.46472810894104   -0.31362716297842
H         4.52283661563466    7.05557967429134    0.18025398715718
C        11.19485439116735    6.18849353142031    3.04002001743495
C        13.30691596415304    6.44201229348638    2.36042598221544
H        14.36928064760604    6.52589413261023    2.45605137837210
C        12.51325093529356    6.45893237666300    1.26132425093012
H        12.75897417400694    6.57086644418461    0.22564060374756
C        10.08383145946037    6.27186688197278    0.83045247470999
H        10.17292451607043    5.45513136734031    0.11282040253769
H        10.00099064355710    7.21101874554290    0.28123434444124
H         9.18110846363208    6.12422592887453    1.42715453524502
C        12.92201555425532    6.16557290653896    4.79539832772102
H        12.27677590728529    6.74966252145991    5.45817021381403
H        13.94902614689336    6.51993474676204    4.88562699734452
C        12.90049856238380    4.69806438045392    5.27350365318406
H        11.88166480185709    4.26580202302321    5.10365315832539
C        13.22168746820751    3.49462265168860    7.30505262809540
H        14.06010596992930    2.90752156620835    6.91282251444150
H        12.28515373728959    2.94321757571414    7.12089722544522
C        13.40946012345332    3.75566906409336    8.78878697716961
H        14.32887880460124    4.30985940643466    8.94925700513841
H        13.46492952040280    2.81188353725950    9.32268955356497
H        12.58082288958432    4.34093483520343    9.17784210569140
C        13.45228062182706    2.72329520158681    4.00600794888415
H        12.88992010352701    2.14090290227099    4.74569919835560
H        14.39278771522022    2.21043422310207    3.79557944142750
C        12.63935215658005    2.86324294259203    2.72241488652955
H        11.68224324645721    3.35280820288060    2.91130996321061
H        12.44359374601401    1.87666046520132    2.31309118002372
H        13.19486043564982    3.44445681519677    1.99080675170894
C         8.09206430267102    5.02967929918459    5.82860565510275
C         6.01120372391305    4.83500903788567    6.61483607647431
H         4.94339082185109    4.78267532753551    6.57361465034218
C         6.85862146263430    4.79249859646213    7.67214276666893
H         6.66263643454096    4.68479735208344    8.71883694440624
N         8.12342255445252    4.91602063985638    7.16971477276029
C         9.30994648449378    4.90644826178512    7.98117739318101
H         9.41248973207075    3.94747231967785    8.49197425424189
H         9.26081923190418    5.69705228448776    8.73096916384703
H        10.18503035806264    5.07073280449013    7.34860991290826
C         6.27404044520308    5.10439049161183    4.16522893223213
H         5.22882992846957    4.79579046514284    4.13715303243759
H         6.85273747923059    4.48983666587732    3.47000355740974
C         6.33040298913870    6.56800438610014    3.67754238165123
H         7.38853278025108    6.93418239272066    3.71888972384287
C         5.87139337073409    7.78291702707434    1.67968687428123
H         6.86620310001390    8.25280442271682    1.74989068969247
H         5.13432441876918    8.44420990815921    2.15013190064922
C         6.05579075856001    8.58264272782043    4.97567488056311
H         5.17817744849074    9.15439318334291    5.28421599453714
H         6.56011854344881    9.11999410414365    4.16375500458888
C         7.00474184868586    8.41316516816866    6.15861428469769
H         6.50779968171314    7.87194559490379    6.95968193051861
H         7.29947525824953    9.39203899705375    6.52487849079257
H         7.90696039224465    7.86872251796505    5.86868669062161

