34
CSD_code = WAXKOX | q = 0 | S = 0 | Stoichiometry = C10H18AuBrN2O2 | MND = 2
Au       -0.70547458099609   14.99171925753090   11.54388864755310
Br        0.34931312978408   17.10455967959183   11.44848524998019
N        -1.12502438683773   12.10780863313624   10.79929773049850
N        -2.31598659259932   12.57961512884718   12.51768095699748
O         1.36394516863286   10.92203168364029   10.92892173003097
O         2.17907318954684   12.21633810394317    9.21053199070908
C        -1.48603766653680   13.12022757878929   11.60997035368911
C        -1.71066086157063   10.94083647796173   11.20193839954760
H        -1.53461721652334   10.01233271329398   10.70170152591381
C        -2.46872966821795   11.23869515626890   12.28364706365685
H        -3.09395548212710   10.61921637232342   12.89250176189725
C        -2.96816307615352   13.29434994706143   13.57772250012884
H        -2.65044349365444   14.33554042961264   13.54665263823949
H        -2.70054031129324   12.86650424323351   14.54500855484855
H        -4.05193992997991   13.24690290004654   13.45843752521606
C        -0.17887287602593   12.22255461211258    9.72885012896330
H        -0.31289522070462   13.17566135884686    9.21404681622458
H        -0.31459185659281   11.39900628177333    9.02688187107864
C         1.26714297895063   12.14411316130062   10.26622562345225
H         1.44211775043203   12.97582390328933   10.98044349152316
C         2.60413631083233   10.70798560514040   11.58861973387497
H         2.77503465281878   11.52229738166647   12.31008869265369
H         3.41726234707435   10.71812964007308   10.85258306559544
C         2.98309599358148   13.38584094213477    9.13353723555993
H         3.77171725710790   13.11640957767404    8.42711695006362
H         3.43847639821355   13.59433026143400   10.11119870207813
C         2.23105092891554   14.61366378103910    8.63557387506442
H         1.72393605885337   14.38981777045309    7.70021779741129
H         2.93512453220176   15.42383285003746    8.46996293870647
H         1.49872387352522   14.95273471953609    9.36450937645828
C         2.54121715183391    9.36707324524053   12.29789860097114
H         1.72875918374962    9.36431948040924   13.01962636105165
H         3.47867772584849    9.18011915071662   12.81345531588618
H         2.36632858796426    8.57570797188980   11.57487679446678

