136
CSD_code = WAXNIS | q = 0 | S = 0 | Stoichiometry = C66H65NO3Ti | MND = 5
Ti        0.09339008403335    2.05149057446160    4.22172867264215
O         1.24346219846484    1.39375191887376    5.32983861058546
O         0.55081920647114    3.31199057945218    3.12477022247741
O        -0.50423819933604    0.71092425297241    3.17742454081556
N        -1.68217015877892    2.24609487364110    5.25257757965068
C         1.84677523330352    1.78079199626982    6.52473934884468
C         0.88836992150308    1.42310554645320    7.67287970249665
C         0.08854303466970    2.26796659696012    8.34985231649980
C        -0.18216040060363    3.68535242098007    8.00420555491675
C        -0.71978172192762    3.99096937025957    6.80086305193814
C        -0.81767055088384    3.06795795074384    5.69780935267584
C         0.80350445006382   -0.08630829324991    7.82839791742924
C         1.48703452810019   -0.74754350011095    9.02637540923214
C        -0.68159523559509    1.77333540119435    9.56417436532491
C         0.09449584476166    1.93989330679089   10.87697346838250
C         0.00229195175641    4.75462666235647    9.06149646706290
C        -1.28259551265863    5.14598949644611    9.80357652348986
C        -1.04559679592336    5.40444345428196    6.35313359915037
C         0.14852038980168    6.05319947966316    5.65539819056610
C        -2.98735411927142    1.88719605993167    5.84539261210123
C        -3.59074307185848    3.01934554345665    6.68030294458970
C        -2.76387066892152    0.64576621669101    6.71449579812078
C        -3.93616503625789    1.52490528828273    4.69735076366951
C         0.97666511513635    4.08075205141051    2.14459950125729
C         0.24570948683419    5.23079869585278    1.75556170211541
C         0.70801270308332    6.01276485908565    0.70216759215038
C         1.88326916189993    5.71514814072932    0.04106288340545
C         2.62965156301043    4.62740308669613    0.45039071486347
C         2.20256559594274    3.80897950344948    1.48981531755952
C        -1.49581840803483   -0.09636623412539    2.87427237953043
C        -2.43695010723672    0.25722278137102    1.87265142356262
C        -3.51511729433166   -0.57491527389429    1.60297896798087
C        -3.68599888237673   -1.76626832863989    2.28345886261940
C        -2.75497775186141   -2.14270319004627    3.23293009856873
C        -1.66036924519454   -1.33994527896275    3.53638366320722
C         3.17021872314695    1.01417806475511    6.71415037313948
C         3.70113800969436    0.30214331725478    5.65029189300737
C         4.91291193167182   -0.35339198199333    5.77376638209693
C         5.61774464254644   -0.29462412754361    6.96231979802563
C         5.10253797696206    0.42929375702112    8.02446121860470
C         3.88872047130679    1.08105967309076    7.90191765356824
C         2.37344872966809    3.21242249026735    6.46049215858120
C         2.67118066186061    3.95497955104330    7.59701357094122
C         3.29608175602019    5.18482052395341    7.48969607465241
C         3.65101888237291    5.68657193413514    6.24846823479990
C         3.39305024034672    4.93714709253053    5.11357866010511
C         2.76975697664212    3.70633395258095    5.22197629296538
C        -1.00597826045637    5.62792112137286    2.42053567878010
C        -1.96483487292732    4.69826204169763    2.82029173311956
C        -3.17342385588391    5.12740862583599    3.34200843326052
C        -3.43718051548241    6.47589060838422    3.51071725434971
C        -2.47284650166770    7.40508633638437    3.15878610210572
C        -1.27497191617980    6.98480753452578    2.61541462668735
C         3.05599438040956    2.66272401381956    1.85496439765118
C         4.43699743164326    2.84491595471486    1.95184347563589
C         5.28133551495048    1.77382850436739    2.17038010598163
C         4.76388328218457    0.49437503380575    2.27730738949394
C         3.39362796799910    0.30321143314075    2.21324370871346
C         2.53898433753622    1.37780449950108    2.02466127433074
C        -2.27933566855831    1.49973976892504    1.09740985647495
C        -3.36746608780125    2.34501814407790    0.88312139886955
C        -3.22900045912086    3.49489633963549    0.12796202337329
C        -2.00439236984659    3.81770024302796   -0.43224086600821
C        -0.92041540784553    2.97698454547773   -0.24333018071334
C        -1.05654015688075    1.82778477034490    0.51431396768868
C        -0.65599223917319   -1.84371167589192    4.48828136859860
C         0.70585833159921   -1.72057235842223    4.21433870118883
C         1.64610935452450   -2.33135412733565    5.02407883030400
C         1.24783889563355   -3.05657947539138    6.13493474552353
C        -0.09956141998950   -3.15556677257392    6.43869956546386
C        -1.04202426344328   -2.55843014790525    5.62295410075180
H         1.22995265233068   -0.51660026218649    6.92028926341982
H        -0.25009338938572   -0.37973369466585    7.84320928528797
H         2.55117804753876   -0.53246191285433    9.03961652834620
H         1.36113459974859   -1.82563759561765    8.94557159100946
H         1.05256857500703   -0.42793945591598    9.96785317639312
H        -0.91390368796125    0.71499091567454    9.44788877716106
H        -1.62859330377017    2.31127674371366    9.64057670938461
H         0.08873192141030    2.96988380218521   11.22040923972346
H         1.12873814894070    1.62928283456704   10.75295521770378
H        -0.35940828789127    1.32914271184972   11.65582890913455
H         0.41339586837571    5.64690885853275    8.58629948770283
H         0.73550387160869    4.42110348211372    9.79505900108827
H        -1.09613116143656    6.01891430112515   10.42691778425968
H        -1.63070893760685    4.34389910349956   10.44847973123657
H        -2.08351722096515    5.38715046776828    9.10897684692935
H        -1.34794496233859    6.01762126144329    7.20055441251698
H        -1.87924135515680    5.36945946647097    5.64722902459252
H         0.98666518398176    6.15712339081147    6.33949215180564
H        -0.12633283932850    7.03828854906490    5.28361048326435
H         0.46740031842578    5.43686300161974    4.81523371059203
H        -4.53655338839597    2.69226094070242    7.10704563045666
H        -3.77221322636945    3.89569520852044    6.06192771107106
H        -2.92262325077708    3.29872683172831    7.49035199562812
H        -3.71811965157543    0.20638715292517    6.99875540360709
H        -2.21548357042085    0.91613450643051    7.61119813516635
H        -2.18468442102263   -0.08920597921996    6.15561036984339
H        -4.94582280595766    1.38073396591086    5.07699153211466
H        -3.61195268156859    0.60664494199957    4.21568462228446
H        -3.95142105473982    2.31481408788911    3.95030095002648
H         0.11521692203917    6.85581788494708    0.37899380442993
H         2.21485126982512    6.32476035083803   -0.78581554624393
H         3.54961854261852    4.38248967510079   -0.06115469387598
H        -4.21236537598446   -0.29028327481105    0.82793449888028
H        -4.52390544701381   -2.40829040907015    2.05780635954357
H        -2.85608786905909   -3.09662078318583    3.73040467460304
H         3.14384561973491    0.27048151144997    4.72437902602448
H         5.31026651354984   -0.90929084358249    4.93700131314602
H         6.56495025209167   -0.80434210281187    7.06157951054001
H         5.64925215889523    0.48634782849307    8.95494875436069
H         3.50224315471787    1.64663456528269    8.73573728152448
H         2.42841657989060    3.56915697399115    8.57279145300507
H         3.51543833730255    5.75178303472665    8.38334502220903
H         4.14038233360830    6.64630664583346    6.16981443062348
H         3.68787522332947    5.30374991649287    4.14072274773879
H         2.62396003235179    3.08879047069185    4.34274046146318
H        -1.77913142410777    3.63689536907431    2.69385102093298
H        -3.92873920674772    4.40264941637154    3.60955179876493
H        -4.38395728805196    6.79991072760743    3.91800150265539
H        -2.65938629264913    8.45979498309904    3.30211358252098
H        -0.52714812392545    7.71777951728962    2.34993786692879
H         4.84796214045167    3.83957755772045    1.85544587343118
H         6.34722880434086    1.93468151464769    2.24085226505585
H         5.42556779658137   -0.34901771006304    2.40798951053205
H         2.99159847631378   -0.69794324064161    2.28703983782199
H         1.46838449211051    1.21513122413460    1.95894488332030
H        -4.32440514509578    2.09979618216480    1.32209275588912
H        -4.07954640503736    4.14411733809746   -0.02319725318770
H        -1.89562654504592    4.71752868858926   -1.01913430969770
H         0.03201458704496    3.21388685179838   -0.69562024685725
H        -0.22237980416944    1.14752967216144    0.61505809899996
H         1.01818470040483   -1.18090733474878    3.33099681396651
H         2.69714633268759   -2.25414566010315    4.78694813813695
H         1.98535128318319   -3.53748688621801    6.76076156274247
H        -0.41893671127992   -3.70988034620448    7.31004064918215
H        -2.09154171687770   -2.65041215361912    5.86603874755617

