47
CSD_code = WAXRES | q = 0 | S = 0 | Stoichiometry = C17H26MnO2P | MND = 8
Mn       -0.14921612871075    0.52119646806116   10.54620003120417
P         0.16696663717540    2.67282246303175    9.88906109238347
O        -2.30701258228648   -0.11352756423833    8.67464623627679
O        -2.20332948469482    1.19655430429039   12.51999230715715
C         2.01825603449209    0.52294517522513   11.67309610723714
C         1.13724589219089   -0.44606281464938   12.14716862230481
C         0.51456260063102   -1.36682367523299   11.23374954812032
C         0.91769825908933   -1.35335391479558    9.85415786710563
C         1.78119061275543   -0.36266216776248    9.38797988804892
C         2.62078212469941    0.36879129331904   10.34389275084158
C         2.66100096598236    1.51130013322872   12.61425013026662
C         0.86779977099528   -0.61626942515475   13.62452637480416
C        -0.22536787086436   -2.56600470287991   11.77861319573711
C         0.43407234628271   -2.46831104715430    8.95598487562974
C         2.16347431127042   -0.30252832985403    7.92942058833775
C         3.83448826744732    0.85744255493849   10.02811356348045
C        -1.45645578159533    0.14974872727667    9.41852355009047
C        -1.38630086240349    0.93117599500233   11.73932314360832
C        -1.26071353418398    3.35487073040097    8.95882560567716
C         0.26670395922443    3.91848082188202   11.23396868795076
C         1.54198333703959    3.23167941204962    8.81318095226773
H         3.06913106369430    2.35377290434660   12.05856689818271
H         3.48231516657571    1.04171643010781   13.16072621072822
H         1.94335927020757    1.90105244706080   13.33409985699620
H         1.17243795464201   -1.62055771126740   13.92186277947720
H        -0.18925234717379   -0.49888252458881   13.86082340957465
H         1.42804037877927    0.09211281368144   14.22517073975781
H        -0.93396088238008   -2.95515334473653   11.05293948630958
H        -0.78409626086549   -2.31318915758586   12.67532820235684
H         0.48333860008129   -3.36073902370831   12.02776564263728
H         0.75584201682167   -3.42093069310114    9.37882559925376
H         0.84729808675398   -2.39035857863819    7.95631303613246
H        -0.65193303028710   -2.48346759388622    8.87287407480165
H         1.29162487656000   -0.42862848919915    7.28979479013904
H         2.89163081461069   -1.08045832166603    7.68809974869338
H         2.61082121233799    0.65955231843269    7.69234119873552
H         4.44608964103000    1.38395971238050   10.73819277225120
H         4.26865130423116    0.72668834306890    9.05368018460355
H        -2.15692501932329    3.21881040459788    9.56505145021977
H        -1.11176993335844    4.41131086981832    8.73605370309850
H        -1.38229067973775    2.79382656674019    8.03319478517387
H         1.19191382285220    3.79502237268361   11.79091336212716
H         0.22527188271857    4.92430508250159   10.81624936447624
H        -0.57540620055197    3.76246749075905   11.90745875568019
H         1.41707219539941    2.78394156706807    7.82871555855500
H         1.53007387780058    4.31770147890773    8.72618605939171
H         2.49409331403962    2.90656019923396    9.23189721211611

