56
CSD_code = WAYDUY | q = 0 | S = 0 | Stoichiometry = C17H34CrN4 | MND = 4
Cr        2.36074906922018    9.91568630543141    1.35931793679129
N         3.35232519223893   10.40171828657858   -0.06417941363968
N         0.57056810053434   10.49795996782675    1.17475971039531
N         2.25066559482930    8.30915239130673    1.22098496685066
N         2.92523862611508   10.15767067757136    3.04329464526016
C         3.92444488305908   11.72700302501506   -0.06622329471219
H         3.57342769965839   12.23431853761456    0.84390513228723
C         3.45662848620447   12.58359725820136   -1.25478490557951
H         3.88462869983089   12.23342749371298   -2.19092083957744
H         3.76272910907070   13.61728926986089   -1.10658870502524
H         2.37148187781198   12.54719108948087   -1.33782945308214
C         5.46044333049204   11.69904785000567    0.01405859148524
H         5.77168421146522   11.05734863894734    0.83847342903031
H         5.84454174335478   12.70326751161261    0.18139832668008
H         5.89590304141341   11.31464829665660   -0.90523769143483
C         3.68333356673160    9.57725143120125   -1.21577724526524
H         4.29276279712804   10.15547687846521   -1.92371612750841
C         4.48223697468888    8.34191658621656   -0.79396807157529
H         5.42014504550573    8.63036521724855   -0.32425269717802
H         4.69410200528239    7.71753458338486   -1.65762421082052
H         3.88389805243568    7.78024313909652   -0.07776477914744
C         2.39549294603834    9.14836949374940   -1.92702807545144
H         1.79866864165872    8.55096518277610   -1.23972203860798
H         2.62938085746916    8.56047223682879   -2.81142979898995
H         1.81746248701404   10.02090030009879   -2.22722769421777
C         0.32618383690145   11.82917046653028    0.96133097110085
H         1.12588156866230   12.54284486176088    0.83081174077197
C        -1.01812457983505   12.06638888790203    0.92234750399862
H        -1.50184783729336   13.01318193525183    0.76958171217751
C        -1.64636480276178   10.81460379322135    1.12351111113176
H        -2.70317564470977   10.63028143597992    1.15699656952767
C        -0.65155115936610    9.88196605206692    1.27051888893018
C        -0.77254497046579    8.41652200927599    1.51280751743698
H         0.18500999323956    7.94048358784501    1.29138259064289
H        -1.54904608135636    7.98885146752178    0.88223384161910
H        -1.02471705191668    8.21235960246610    2.55408560519535
C         2.88098676196888   11.52464729881054    3.50426537834380
H         2.57194084032895   12.14816350724426    2.65300297078904
C         1.80764627281528   11.72498661510465    4.58637584859706
H         0.84988126530094   11.35574775985872    4.21984011945366
H         1.70875096239932   12.78274855123646    4.82112182841438
H         2.06307368747965   11.19153962852311    5.49912010711067
C         4.24422904120813   12.05957413651677    3.97336669872742
H         4.56085589344021   11.58416657666316    4.89876062916744
H         4.17979270628066   13.13159916497867    4.14779561774323
H         5.00164879759449   11.87448073951709    3.21269915367358
C         3.34728720845372    9.16953894684489    4.02059120818714
H         3.60550547743430    9.66650694954400    4.96611152846274
C         4.58913748062961    8.43414803103406    3.50646227703616
H         4.33625994745187    7.94512599611279    2.56784811057574
H         4.91405196215033    7.68914136879965    4.22830386214179
H         5.40498827100246    9.13486750226625    3.33485868477064
C         2.22223396810188    8.16803377921652    4.29198034319392
H         1.34104719995611    8.67895394313738    4.67386012153276
H         2.54392449140615    7.42385330111538    5.01606845620164
H         1.96581145424392    7.68010045476626    3.35384130638356

