81
CSD_code = WAYDUX | q = 0 | S = 0 | Stoichiometry = C28H48N2NiP2 | MND = 4
Ni        8.48044295661602    1.77021280146816    9.53386078513241
P         8.37896765234173   -0.46399417831105    9.42220661907094
P         8.12630704400096    3.90006301129028    8.98098945922868
N        10.39582055587832    1.91040994634498    9.78102268770193
N        12.15182930365896    2.15389304097604   11.13751895484414
C         6.55988660067005    1.69155232892503    9.62020311053209
C         5.85558595401295    0.48329884808520    9.53038517582393
C         4.49859513067599    0.42182564612322    9.81415186976399
C         3.80346821771439    1.56536812223914   10.16079160084047
C         4.46157198774265    2.78034520050897   10.17396874643775
C         5.82037745636554    2.84949554691403    9.89439790843574
C         6.51220060959978    4.18213379647090    9.83455616759726
C         6.58921047282483   -0.72659303489382    9.02941810998607
C         7.72967893589230    4.04060001055467    7.12507095575579
C         8.99707991552878    3.66807327750559    6.34861677026448
C         7.20696580339237    5.39429314539532    6.65368908278284
C         6.66476566518656    2.98221267513146    6.82626920238386
C        10.34271528577141    5.61995453781742    8.63889495781924
C         9.11546153293968    5.42489947635954    9.52735204511617
C         9.61117787937526    5.12871223189462   10.94407965743607
C         8.28358513433428    6.70882145259232    9.57616027456322
C         8.59958658059227   -1.49788369239708   10.98830981135115
C        10.03517013988072   -1.34358068115574   11.49998692077904
C         7.62373739766979   -0.86575047366619   11.98785310639585
C         8.27529756092341   -2.98368259777995   10.84727730391891
C         9.25674040860637   -1.25888171764768    7.94747412782124
C        10.74205238262216   -1.43112776436288    8.26122146343379
C         9.10380710928286   -0.21456435787743    6.83723365477804
C         8.66945343162450   -2.58717308348183    7.47385722020226
C        12.59356929002598    2.08896871789390    9.85499032526071
C        11.52620958662134    1.94274136297082    9.01092026481355
C        10.83942266604113    2.04481846669533   11.05415113952392
C         9.90314396942194    2.10063046498182   12.22118280803460
H         3.98271340857289   -0.52716417410774    9.75234641708110
H         2.74944631115397    1.51383916565579   10.39114876192852
H         3.91747087574126    3.68891288333317   10.39551099152203
H         6.72279686512068    4.53803377374088   10.84820509264263
H         5.89614730865920    4.93501688332256    9.33522860219901
H         6.47700684138328   -0.76261546539289    7.94099796086453
H         6.19157802740392   -1.65783810884491    9.43657861636785
H         9.67642540673358    4.50839848161580    6.24921863588913
H         8.73938814883410    3.32686275786912    5.34686577708191
H         9.52306587231109    2.86335890179230    6.85997090328056
H         6.89093843859883    5.30631821192007    5.61404173634984
H         7.97471221608340    6.16185987395374    6.69568668777951
H         6.34421198719512    5.71613378727398    7.23331663268617
H         6.48511410351659    2.93000403220958    5.75270928949177
H         5.72185317023897    3.21112628752668    7.31799501082765
H         7.00283900699318    2.00325882272820    7.16800021218333
H        11.03771683274306    6.30467602401845    9.12371296038173
H        10.07948489554910    6.04468977877015    7.67377488106360
H        10.85774214177412    4.67232002132585    8.48994235010044
H        10.06279562129357    6.02227283185256   11.37317536345787
H        10.36552826445157    4.34823233248923   10.92309830327839
H         8.79848890471581    4.81680487075978   11.59844331373120
H         7.82535267879242    6.95129913933219    8.62438160256115
H         8.93976661760285    7.53540371433478    9.84820148728615
H         7.50353561771195    6.64786070834364   10.33084265286377
H        10.70101963693703   -2.06564660279956   11.03586873698045
H        10.07137354798849   -1.51051349164205   12.57567529618188
H        10.42379642750546   -0.35007530177754   11.29340209323868
H         7.74047434903790    0.21753362136799   12.00248473941978
H         7.81024793389719   -1.24384334102704   12.99210049701981
H         6.59047703726640   -1.08891276073566   11.72994841265945
H         8.24636946510368   -3.43113593997366   11.84057062832842
H         9.03871656375186   -3.50485265194249   10.27596112000636
H         7.30941978642794   -3.15649138044583   10.37838085255048
H        11.29776246920556   -1.61118883527435    7.34135905168929
H        10.90916203776678   -2.27922277312959    8.91924653809607
H        11.14512540219117   -0.53621218917616    8.73169614234124
H         8.07837679553778   -0.16403406208746    6.47401160227401
H         9.74877919014364   -0.45008029868797    5.99214512754023
H         9.38366672983387    0.76784325268183    7.22494950464484
H         9.16127239133531   -2.87516758878188    6.54476831282555
H         7.60298375096178   -2.51609604409443    7.27544654297801
H         8.83282065310591   -3.38251548202409    8.19358920882825
H        13.63955928351843    2.15401307436323    9.62343870168371
H        11.50332905862204    1.86820792625781    7.93821269229259
H         8.87170417139625    2.17775275698263   11.84245180009714
H        10.12141123664115    2.96682785675595   12.84288187928838
H         9.99324790081404    1.21585219179680   12.84935398837218

