83
CSD_code = WAYFIN | q = 0 | S = 0 | Stoichiometry = C32H48NiP2 | MND = 4
Ni        3.05194936406753    1.62156707411982    5.70755102775597
P         4.36922851074589    2.39461536776076    4.19345570808860
P         2.04729751701008    0.86929607876674    7.45388740202527
C         1.53728546971410    1.53473891757893    4.58720597932459
C         0.56064052437105    1.47590661164674    3.86145979087299
C        -0.57407743810217    1.40754320361366    3.01728509186285
C        -1.78530904308538    1.97980680916823    3.41194369994485
C        -2.88857925644792    1.91058630501376    2.58469616650930
C        -2.80394792121996    1.27229720090670    1.35734021233751
C        -1.60524692586570    0.70165930922197    0.95919482828772
C        -0.49615885201749    0.76660762163281    1.77893073515026
C         4.62025664226087    1.70804116489941    6.86508400767266
C         4.63781414241715    1.09623441464164    8.12807330321257
C         5.75519903689382    1.15643987212437    8.94879982038831
C         6.89245148888127    1.82409544190761    8.53479766508066
C         6.90508655717418    2.43551789728355    7.29517320686773
C         5.78770682474359    2.38203045348539    6.47411502084910
C         5.79088391938798    3.08576896565283    5.14533253793565
C         3.41878201020857    0.33223469112628    8.56553067394613
C         0.97211265836381   -0.67889637081168    7.35038447891402
C         0.84858875378836   -1.44914306500958    8.66487754350539
C         1.69319608398552   -1.54336164744983    6.31071424731965
C        -0.41924643860114   -0.34123618304487    6.81902705388294
C         1.20847442304483    2.27058304287796    8.39805330911888
C         0.56791408935105    1.86487028446572    9.72109296568644
C         0.17074638903662    2.92202839099599    7.48219576829876
C         2.31915682065454    3.29531922483256    8.64797379188784
C         3.84289700556702    3.85618110366694    3.12084528535957
C         2.99639753624669    4.70855411256614    4.07218333521045
C         2.95686252607221    3.39359269598533    1.96623798858209
C         5.00396989356896    4.68888398046952    2.57774184287601
C         5.12784003636977    0.99268507886317    3.18462354292465
C         6.17272499489828    1.42568487664600    2.16180369056916
C         3.99982152913863    0.22017580997029    2.49849189502233
C         5.76595187964391    0.06359900636578    4.22184932316622
H        -1.84763010970559    2.47816943685679    4.36952718015057
H        -3.82301916147791    2.35587332584354    2.89728186725596
H        -3.66970615499227    1.21973458923998    0.71291288088616
H        -1.53703620147114    0.20379012499662    0.00176747782768
H         0.44017740717451    0.32130852826218    1.47198259055703
H         5.73399364615922    0.67327857312119    9.91739544531073
H         7.76283959032076    1.86771718163537    9.17376313360211
H         7.78965792012764    2.96272431089778    6.96101211819821
H         6.74416709243423    2.98965559050393    4.61831545296245
H         5.60705842499732    4.15223904470667    5.31172812989139
H         3.18902401495147    0.47453520092582    9.62514578221506
H         3.59558218755818   -0.73592082495616    8.40257475514195
H         1.81193316914483   -1.80259026442497    9.02330244261917
H         0.21730343207828   -2.32265443669528    8.50240189650934
H         0.39056287503966   -0.84775134392478    9.44426314152028
H         1.77416603278226   -0.99416837213562    5.37053466352771
H         1.14083592313492   -2.46356309488848    6.12715758001996
H         2.69653941714677   -1.81089529630908    6.64113712408741
H        -0.92775239885711   -1.25494185280602    6.51277263525743
H        -0.34203155955809    0.31277429991666    5.95275518455294
H        -1.02828040062871    0.13707001151438    7.58230608461398
H         0.24678875387502    2.75979163763488   10.25419875702579
H         1.26746038808062    1.33080754154236   10.36126578284699
H        -0.30944775194929    1.24287351243968    9.56139304308129
H        -0.13564666881159    3.88427682347743    7.89130057811013
H        -0.71514805461117    2.30488376363470    7.37049274792793
H         0.60138116780654    3.08561814480050    6.49288809304276
H         3.07419263729209    2.91871558470083    9.33462708388635
H         1.90022870363810    4.20867879095954    9.06932744985353
H         2.80778323844613    3.54731168739391    7.70331513899799
H         2.16312849383350    4.11448866340244    4.45277474085444
H         2.59345396399132    5.57708805513538    3.55367919465929
H         3.58308239818771    5.06213381011736    4.91969026616494
H         2.45114533941140    4.25150827077261    1.52409129193521
H         2.19986991685553    2.70057110990978    2.32790458820099
H         3.54328193572643    2.91584085653694    1.18511549605432
H         4.60105970738954    5.50405012310153    1.97680906205575
H         5.66110573571035    4.10124307434427    1.94388064606001
H         5.59725660913548    5.13056589229231    3.37422957550842
H         6.65292675407076    0.54151066161489    1.74248003388356
H         6.94837144804786    2.04146636449792    2.61301543671274
H         5.71876452487980    1.97562552291531    1.34104998002252
H         3.19493872697595    0.03061217235720    3.21060574013260
H         4.37222372593659   -0.73603977894403    2.13222183834380
H         3.58801199922974    0.76735928455333    1.65637077845944
H         6.61432614510640    0.52907714459250    4.71880641472467
H         6.11144420956998   -0.85257411206780    3.74382510110568
H         5.02686005358755   -0.20467707596215    4.98105063320737

