73
CSD_code = WAYFOT | q = 0 | S = 0 | Stoichiometry = C24H43N3NiP2 | MND = 4
Ni        0.90050641181200    1.68859988372135    3.67422123452264
P         2.79108979417113    1.58644402684514    2.61754764532872
P        -0.78053649301646    1.94137454009093    5.02573701007019
N        -0.00247350281734    0.51932341679712    2.50612335682257
N        -0.31928620153643   -0.58211560678250    2.27472443083793
N        -0.67215989598233   -1.61845440960524    1.96520867038884
C         1.78770766617214    3.00709576475250    4.77707323413018
C         3.00487646657324    3.58733132685327    4.38822327905830
C         3.62513002890515    4.55195575739053    5.17021092547613
C         3.05369993179113    4.96773265529613    6.35764848103253
C         1.86023375755586    4.40436660078714    6.76665274132899
C         1.23612261182935    3.43390604646084    5.99447863880189
C        -0.03068198410718    2.78918816840362    6.48327114766929
C         3.62399083785158    3.16465364053268    3.08514653972255
C         2.82224086168199    1.64003071647998    0.73067172968995
C         1.66555193950740    2.58470709578980    0.38388875710862
C         4.12300083195173    2.18215433087051    0.13871169833136
C         2.52287026972403    0.26466241186282    0.13774584265715
C         3.90676025546938    0.24216338625350    3.32994005596790
C         4.07910922155986    0.58689420555851    4.81224648873233
C         3.14548428298224   -1.08195858381230    3.24510915002428
C         5.27344290001007    0.12233439529521    2.66512272883174
C        -1.98599550269030    3.21226047428064    4.32413760842416
C        -1.11747822998444    4.43452748586968    4.00996002611586
C        -3.12785428435772    3.60778949088033    5.25430599469998
C        -2.53663972276466    2.68128877784903    2.99912581717694
C        -1.66010277604228    0.46562541662162    5.81068188663569
C        -2.30247140603673    0.77968578479814    7.16241188576659
C        -0.54215344313872   -0.56554013432513    6.00053567163200
C        -2.71215470240471   -0.12008618161972    4.87113137530615
H         4.56294077915512    4.98025964401769    4.84181576072453
H         3.53691329323404    5.72155149104316    6.96185942870753
H         1.40623955263736    4.71529520242094    7.69833685364922
H        -0.70819290525390    3.50262114255331    6.95890499414901
H         0.23082791136036    2.03007622763655    7.22720306554940
H         4.71159938026082    3.07342212418955    3.14742073358676
H         3.39297621580691    3.91697367870330    2.32484252983061
H         1.53117508970687    2.64377370956220   -0.69495339610249
H         1.84653463221611    3.59190694342170    0.75768414155829
H         0.74028014469570    2.21449223636932    0.82864438821687
H         4.34215410859522    3.18765652398666    0.48849834849729
H         4.02326753465322    2.22483849565156   -0.94573148528383
H         4.97035744686273    1.54386491959907    0.36901985412431
H         3.36680593932499   -0.41145654889267    0.25255819894543
H         2.31788889725441    0.36127394545711   -0.92800343981029
H         1.64750612752468   -0.17554779330007    0.60815334856680
H         4.67267367551939    1.48673401199345    4.95607760159060
H         4.57473511859407   -0.23405770736045    5.32916066535628
H         3.10200845207030    0.74187474215857    5.27545338910349
H         3.67308279929275   -1.85678273869297    3.80005343112745
H         3.02507297585240   -1.42115626983597    2.22082372366807
H         2.15390371698950   -0.96339199900138    3.68511779553004
H         5.18973633689684   -0.26280265963437    1.65211481507405
H         5.88992456074382   -0.57386631083287    3.23360282660041
H         5.79019581416453    1.07991862308253    2.63911842099565
H        -1.69740367518811    5.17686826294495    3.46295135201792
H        -0.27067380005027    4.13280123795861    3.38581072969609
H        -0.72920335896207    4.90233518365821    4.91206130870286
H        -3.82468289999516    2.78582423342951    5.39879062714230
H        -3.68051514564728    4.43542830896038    4.80997994427225
H        -2.76294474968143    3.93686985128834    6.22538851476846
H        -3.00998467547437    3.48934634179883    2.44256425477288
H        -3.27452440615313    1.89936938736265    3.14811239129198
H        -1.72186655989934    2.27823981413862    2.39620500520876
H        -3.02137475602311    1.59014652445174    7.08980272489177
H        -1.56205510783624    1.04062710074250    7.91414902241687
H        -2.83064611553416   -0.10594226900576    7.51489033790650
H        -0.13848709777484   -0.86337448261350    5.03327989763044
H        -0.92356460457534   -1.45644874758785    6.49685403269454
H         0.27343047371170   -0.16317041292093    6.60212811856580
H        -3.60100442937921    0.50514520900571    4.83372848413086
H        -3.01215667939440   -1.10513116796639    5.22725191204242
H        -2.31667993496926   -0.23704689412754    3.86558129561540

