76
CSD_code = WAYFUZ | q = 0 | S = 0 | Stoichiometry = C25H45NNiO2P2 | MND = 4
Ni        1.61637669195640    4.26743045739255   10.62646069616969
P         0.00814091375549    3.67108950612768    9.25089532200106
P         3.09506730864734    5.27751975010688   11.90638637697182
O         3.00607242827272    2.97205219028644    9.80390204917908
O         1.93167929609701    2.12429923384395   11.53920416005434
N         3.56889277424569    0.91695902821599   10.54472117018330
C         2.78583662450833    2.04683193596068   10.63527808419892
C         0.42683511847569    5.66762876582849   11.18385304007949
C         0.71948699252199    6.48758983694596   12.28105058469125
C        -0.17146750675988    7.46638227093421   12.70341626442985
C        -1.36360408797973    7.67101331749776   12.03693040295335
C        -1.64159294925348    6.91642568184829   10.91382620219276
C        -0.75576482527578    5.93832372547196   10.48175706301482
C        -1.02254083574110    5.20504114991530    9.20012674581825
C         2.02867292001222    6.32269071698623   12.99517498080313
C         4.04792958080057    6.52567129024502   10.83929154220442
C         4.91691791735509    7.53044259999439   11.58926141436119
C         4.89246385076024    5.74372114429233    9.82963388882572
C         2.96347554895883    7.27710711426217   10.06092756180265
C         4.22555908601010    4.44486054589806   13.18097573936758
C         4.85982653410328    5.41159275857639   14.18252731168543
C         5.31854073610711    3.65354549026519   12.46327655911058
C         3.33212110557772    3.46676492828106   13.95430847489532
C        -1.23897944371057    2.39180269683637    9.88162446658244
C        -1.63270026321359    2.92617459692008   11.26296396791696
C        -2.47614653916696    2.21160766604617    9.00408777928359
C        -0.57243428770577    1.03168036228807   10.08864248435920
C         0.45080504314224    3.42282529274538    7.42596941264096
C        -0.70161501248007    3.64468749604588    6.44816087188251
C         1.54902169543366    4.46154972290974    7.17137829807652
C         1.04968112158817    2.03315692298346    7.21766432014116
H         3.26726590345329    0.10287065204326   11.05037338246772
H         4.08961693069291    0.77151576012403    9.69752374991949
H         0.08009245742555    8.07549507712559   13.56140759649698
H        -2.05796555646400    8.42601340250981   12.37525570951431
H        -2.55214910814211    7.09091842725463   10.35618114287465
H        -0.67387820154996    5.82963049225571    8.37228863347196
H        -2.08569055087483    5.01247600005776    9.04724680059967
H         1.86305490502849    5.78710272432949   13.93306531728277
H         2.47865858619830    7.29048029600833   13.23206794479487
H         5.82340443157775    7.06744679651321   11.96915239939467
H         4.38405915491058    7.99167345325323   12.41752788014036
H         5.21734449429841    8.32334649028737   10.90431993375493
H         4.33021811196051    4.89105612511063    9.45167187999000
H         5.81315578355915    5.37589405755034   10.27327358691286
H         5.15983215021546    6.38325395568445    8.98899610403930
H         2.31668153396447    6.55986258617460    9.54642450519807
H         3.41879302691538    7.92730238650224    9.31447719134473
H         2.34633950961073    7.88785537587251   10.71660398506251
H         5.63185891229407    6.02405002845732   13.72863896104336
H         5.32581775256686    4.83123549361468   14.97892415357124
H         4.12053453358078    6.06521011597050   14.63822117487504
H         5.79956881568201    2.96627236760179   13.15870414176947
H         6.08557753587663    4.31312456134304   12.06471027017229
H         4.89762475316015    3.07101581555668   11.64801554549266
H         2.65306420335480    3.98727543789040   14.62656704800556
H         3.94801766208729    2.80146968281079   14.55818314315312
H         2.73980080839396    2.85899524483600   13.27287795981409
H        -2.22434143560228    2.18406364329624   11.79721426309434
H        -2.21360040587007    3.84336379566558   11.19714184470859
H        -0.72849003013245    3.12586394644962   11.84405630021730
H        -2.92189461331754    3.15766433671265    8.70738542009084
H        -3.22689292852216    1.65352645322396    9.56338035517858
H        -2.24125371736972    1.63948120855155    8.10957154396857
H        -1.27671708588780    0.35186573724915   10.56805523639099
H         0.28998874789775    1.14133164808164   10.74059939538487
H        -0.25667818471276    0.58127918803032    9.15201078579606
H        -1.15825911254497    4.62294533266870    6.57311089133715
H        -1.47248522615676    2.88815489033022    6.55465629388033
H        -0.31625854757398    3.58556195022146    5.43011501568237
H         1.17153697108715    5.47828727983225    7.27092662535280
H         1.95223692938852    4.34966361692003    6.16563058672630
H         2.36006404709072    4.31701277685271    7.88526790135572
H         1.54559295128360    1.98250252807173    6.24834115753065
H         0.28293446754152    1.26238183476565    7.23994240484113
H         1.78826109660611    1.82963883045986    7.98971660144309

