63
CSD_code = WAYGIP | q = 0 | S = 0 | Stoichiometry = C22H36CrN4 | MND = 4
Cr        2.62929550274156    0.43825323942548   18.45933967762911
N         4.26916000493090   -0.28972231414097   18.45555309396998
N         1.45696853602121   -0.71952938466067   17.49707011370060
C         3.00894521881499    2.68519300743512   16.85135509044750
C         1.65296009740703    3.16645419944539   18.83272006192846
C         4.80810488563594   -0.57135673990768   17.14446885085896
H         4.08753930657055   -0.19208770270529   16.40396652617195
C         4.91895204010626   -2.08326266687032   16.89049917282037
H         5.67088454507842   -2.53725685332360   17.53186782697657
H         5.19355482232564   -2.26499139702503   15.85348139022876
H         3.95767547817799   -2.55718206758324   17.08675986372524
C         6.14606436361370    0.13262578040978   16.86495400920642
H         6.06399032758902    1.19722139302453   17.07917627893552
H         6.41554196748577    0.00756126754497   15.81831137168294
H         6.94715773885837   -0.28081155134255   17.47324806392058
C         5.09195233937068   -0.69789445371075   19.58158834431804
H         6.03306630315203   -1.13134792338829   19.21566376411813
C         4.36849191126282   -1.75054568207663   20.42415223570540
H         3.42223025473844   -1.33170408683932   20.76249653443057
H         4.97327174705501   -2.02845308587688   21.28338074692826
H         4.16018677470786   -2.63981348931375   19.83394106232936
C         5.42739573040172    0.52250207285960   20.44519787867007
H         5.95644805107360    1.27331058024127   19.85971776009943
H         6.05271968136859    0.23005744036479   21.28476566293628
H         4.49716786130105    0.94783330616047   20.81593488525800
C         1.15025493033381   -2.02957119784030   17.77349030838949
C         1.01550193287424   -2.53688192036146   19.13414440794106
C         0.36916825064967   -1.78419704884222   20.11426450162989
H        -0.03689392583330   -0.81802530833765   19.85353872469616
C         0.23642618653276   -2.27741104470956   21.39783670313694
H        -0.26164226213500   -1.68416951107977   22.15036241913947
C         0.73276280865304   -3.52976917356542   21.72153706605849
H         0.62803719332772   -3.91307004192637   22.72617141548591
C         1.35644336757664   -4.29371058884182   20.74968527927399
H         1.73729216217107   -5.27519842584022   20.99494705054965
C         1.49730164224852   -3.80231518775893   19.46549444489487
H         1.99066258597359   -4.39804243301499   18.70977134506952
C         0.97433584514023   -2.71938039277350   16.59160945731606
H         0.71424858099707   -3.75604497362323   16.49243257182647
C         1.16150669565386   -1.79543392772180   15.54445328203393
H         1.08438112435662   -1.99052303637823   14.49095483693024
C         1.46298964735104   -0.59748249029889   16.13852558400299
H         1.63531402172516    0.35251372819537   15.65546616028448
N         2.36399432620305    2.17384098342015   18.03976804384997
C         4.14640690133496    3.66404823388282   17.18678820261297
H         3.75709041092179    4.59224900520463   17.59847001764735
H         4.71435407668589    3.89875906845549   16.28881937649139
H         4.81195137442830    3.21234358103348   17.92245500055936
C         2.02817030042295    3.32131987509727   15.85126094055968
H         1.17162090879459    2.66814857926566   15.69262241147396
H         2.52854971452779    3.47995492888687   14.89817295655794
H         1.66284848434579    4.28209113735145   16.20551356137883
C         2.30756119839877    3.34986270388468   20.20399626061442
H         2.31086519600033    2.38376968869004   20.70754184033984
H         1.74407244438891    4.06578906212661   20.79598626879029
H         3.33204051290943    3.70046088833439   20.10148038418885
C         0.19506236434995    2.73067510073813   19.00945366546783
H        -0.27856632951105    2.57803933715280   18.04074852462490
H        -0.36232181117397    3.48639572631959   19.55779273575499
H         0.17948101266290    1.79396616328833   19.56352355338352
N         2.20906121707983    0.37016305304003   20.01726640450330
H         3.46947365090332    1.82851946703215   16.33866514706127
H         1.66446776893972    4.13356350336712   18.31247887848501

