70
CSD_code = WAYGAH | q = 0 | S = 0 | Stoichiometry = C29H36N4Ti | MND = 8
Ti        4.09644234644125    6.60568998255645    0.64598126627980
N         3.49563368351742    5.35838818075414    1.98564972266793
N         2.68706171847945    6.30105025399096   -0.60532585607320
N         5.73640863709513    6.24046745428359   -0.15704112238427
N         3.77274829557715    8.24421277909048    1.38371360465982
C         1.65148438818735    4.40671439426132    2.84517816150497
H         0.75594584074041    3.82408807776824    2.94720655864543
C         2.42031226934344    4.56273190305820    1.70833391578438
C         3.39364336040071    5.73664514428596    3.30448434431846
C         4.41147143857097    6.57967202684665    3.89987894782129
C         5.72119974225115    6.53336480185989    3.40685919587188
H         5.96270440872438    5.80337270264979    2.63417327506357
C         6.70579502601295    7.33569399108511    3.95307125259915
H         7.71957337072537    7.27774530656888    3.57731391733575
C         6.42353162426605    8.20565524535560    5.00103952502893
C         5.12750548515895    8.23345959425194    5.50477737808169
H         4.89468984298722    8.89494116330186    6.32804270755068
C         4.13642213433589    7.43544155381649    4.96928551445797
H         3.13452349674091    7.47494429090853    5.37163638027344
C         7.49774061936295    9.06404111565739    5.59868814380549
H         7.08354557431983    9.99594797536746    5.97743906333289
H         8.26688870072679    9.29271998104698    4.86418581319499
H         7.97205856212502    8.54498926244901    6.43261650662273
C         2.26564571671984    5.15905040749832    3.86122342279816
H         1.93908379784262    5.23923115695506    4.88113725594746
C         2.23487551124849    4.00682343289422    0.31417209844351
C         1.93302800491727    5.16139468401894   -0.62056652983465
C         2.11472149562937    7.19116347860043   -1.48307445295907
C         1.00772957102271    6.59868396763795   -2.06726153230055
H         0.36927835052599    7.02930945319531   -2.81531300781092
C         0.89850336620571    5.30870637774469   -1.52400656040553
H         0.14516101028384    4.58566901234219   -1.77047610907194
C         2.63583948307594    8.53330297957819   -1.68304712931010
C         3.99541494911683    8.82540370688726   -1.52225075583162
H         4.69205184254449    8.02227159477098   -1.28982739174096
C         4.46435342908611   10.11336411611877   -1.70058613953510
H         5.51966024384662   10.32077717676917   -1.57875375703591
C         3.60718358582133   11.15241876716212   -2.04958947189048
C         4.13673093550068   12.54338278423806   -2.23135606049050
H         4.57353837185735   12.90979732792601   -1.30238380184782
H         3.34521836402966   13.22454906852404   -2.53326723330588
H         4.91624270581738   12.55823402766007   -2.99236678095023
C         2.26106078000938   10.85958179799294   -2.22708483691801
H         1.57710828340346   11.64970059086839   -2.50459516478533
C         1.78119246851694    9.57705767877195   -2.04772843619028
H         0.72814019936391    9.37638415503140   -2.17731675192708
C         1.08772060376926    2.99273993291697    0.28566437102551
H         1.27164305434445    2.20376502108503    1.01154916988629
H         1.00987836861060    2.54368934764695   -0.70183572800594
H         0.14387452376237    3.47503024127805    0.52559017008653
C         3.53878802467613    3.29480450293381   -0.10421026148706
H         4.40014934492073    3.94716662872968    0.07508168828545
H         3.49870003976936    3.01924845546688   -1.15782348341867
H         3.66322777172082    2.38852333979631    0.48780333703267
C         5.81856689334096    5.60953523723872   -1.46107183616739
H         6.29486534564739    6.28261432894385   -2.19694667726481
H         4.82235225180547    5.35018540158586   -1.83387052574820
H         6.43287302037000    4.69293786220235   -1.42270337631195
C         7.03553101391383    6.75059909350946    0.21747511497513
H         7.76597621570405    5.93158272210230    0.34190761915487
H         6.97522305370061    7.30767024122581    1.15532926089594
H         7.43804536511285    7.42468693210771   -0.56151186740879
C         2.42329690669889    8.53248548385416    1.80737097287746
H         2.39104209239167    8.77015184258342    2.88412208463163
H         1.76919103067168    7.67121444930809    1.62255692006089
H         2.01718135952425    9.40222358114456    1.26193017901614
C         4.65691920733254    9.34577939673016    1.65686953821079
H         4.29104016177454   10.27227735434549    1.18322169041502
H         5.65584200910096    9.13271376130826    1.26614733531356
H         4.73617930859138    9.53463991733548    2.74098521439921

