62
CSD_code = WAYHOW | q = 0 | S = 0 | Stoichiometry = C21H35CrFN4 | MND = 4
Cr       -0.16446698413803   10.91890832774595    4.36489618637624
F         4.36054349850835    9.03147886801292    9.32779450439762
N        -0.12307310641877    9.30415080724843    4.37766012057972
N         1.14705638988770   11.41598100845539    5.63224305196575
N        -1.78757415794920   11.30006671217643    5.02594727606712
N         0.33618950497224   11.32689257304954    2.69346368779647
C         1.41879600934763   12.72390852181585    5.94619181268473
H         0.95343837056268   13.53763436514764    5.40859748334824
C         2.31483872072492   12.84870364746287    6.97032235677596
C         2.64944646250928   11.51154760037091    7.35084119694709
C         3.48970370440347   10.96902621437172    8.32081262368829
H         4.06816475080047   11.58706828705534    8.98911852061284
C         3.55297303615480    9.59772500897428    8.39308274868677
C         2.83071700448026    8.74816696813577    7.55412918663104
H         2.93926065858721    7.68235021861615    7.67612508255429
C         1.99718023807232    9.27663771090377    6.59265359145738
H         1.41980936191186    8.65429312950942    5.92309350605445
C         1.90479294131151   10.66045613112028    6.49326817190394
C         2.84442095742866   14.10168619406439    7.57780418713891
H         2.41888424661701   14.97581723585369    7.08927998808181
H         3.92953788840767   14.14126921119347    7.48205654578751
H         2.60232727982533   14.14208440592110    8.63994086526499
C        -2.74529320056879   10.37665778552912    5.60964636821012
H        -3.63501408792876   10.92699263277509    5.94589407448021
C        -3.18442893733538    9.33712050499814    4.57610135911859
H        -3.64063854509924    9.81997458566269    3.71404259647938
H        -3.89956134352048    8.64708661443104    5.01567749979794
H        -2.30248794525813    8.78845136635689    4.25106822712288
C        -2.12434420219512    9.67564221747191    6.82244944451070
H        -1.25716159889735    9.10888950155377    6.49026296749914
H        -2.84639510988195    9.00323591523384    7.27893269283802
H        -1.80270901961422   10.40403074503460    7.56448717732496
C        -2.16836671660267   12.68990669808855    5.04462851651294
H        -1.36391275691345   13.25746722116807    4.55630885186231
C        -3.44775278093089   12.97434022014142    4.23915506749501
H        -3.36890305566931   12.52145031751929    3.25124141309418
H        -3.58441454295822   14.04754661331776    4.12423454010616
H        -4.32751300326833   12.57032951680555    4.73399321652438
C        -2.28448575551920   13.24326358084642    6.47442608778043
H        -3.12084665491044   12.79403649073074    7.00436988233174
H        -2.43602353553350   14.32045589591761    6.44495747919986
H        -1.36940484074779   13.03160910952875    7.02690705336601
C         0.68240176752541   10.42363110073522    1.60975168123345
H         0.96567376472988   11.00184375982888    0.71914765500654
C        -0.52025365724279    9.54594980922343    1.25172404112897
H        -0.79072823581815    8.96081423669483    2.12786357773061
H        -0.26937331204106    8.87821115184212    0.43176063866210
H        -1.36959378971998   10.16050701909235    0.95860062131825
C         1.86920246074486    9.54410938130270    2.01184541559322
H         2.73629642607698   10.15673563738461    2.25028790038906
H         2.12697679819496    8.86494319283330    1.20323116932197
H         1.59020631260742    8.97286015538915    2.89514788056807
C         0.44391638204223   12.73241880640852    2.39480502744321
H         0.13594234395979   13.28404040973525    3.29432072135994
C        -0.49307832711758   13.18709272881060    1.26331923119752
H        -0.18203988088233   12.78274859443214    0.30313577008799
H        -0.49026025267372   14.27277439749963    1.19237120732975
H        -1.50940310196124   12.85178371240291    1.46730556381703
C         1.89525762564072   13.15424463801918    2.11186046352780
H         2.53856168973741   12.82022653660037    2.92571823308244
H         1.95987849825211   14.23776406228126    2.03395914539837
H         2.25780734529090   12.72175998916616    1.18243684534632

