62
CSD_code = WAYHEM | q = 0 | S = 0 | Stoichiometry = C22H34BrCrN3S | MND = 4
Br        5.38603254429334   22.98431382776227   14.24341883729559
Cr       -0.22415781763747   14.59581116690133   14.77707788599370
S        -0.59440745108219   16.83496617088040   15.04012963738935
C         4.10106741145503   20.44944389624199   14.38594079479499
H         5.08567093865171   20.04105723914883   14.21329187875698
N         1.35622578212048   14.39248240271130   14.50802080196355
N        -0.51735201319634   13.80870365034947   16.36006785166690
N        -1.01320447881624   14.12793633795627   13.23440805052614
C         3.90387624470930   21.80005317545693   14.45518638244055
C         3.00813850381885   19.57542789377137   14.54083347491553
C         3.15873160518901   18.17197721799554   14.47792787493178
H         4.14267263986728   17.76048916754192   14.30815290339726
C         2.08555921891022   17.34485960330181   14.62766570330836
H         2.18472472920056   16.26405582420134   14.58027238772368
C         0.80311985257963   17.88213888811007   14.84746677813447
C        -1.82925877788550   14.05496017395823   16.90963299281963
H        -2.35843261298425   14.71314185136315   16.20135386618266
C        -1.75419252153770   14.83733356671727   18.23047089478733
H        -1.30664028459527   14.23949948180809   19.02096197482530
H        -2.75391584911832   15.13047966086002   18.54298956053645
H        -1.15457171235197   15.73567429867460   18.08644192522769
C        -2.67234365628525   12.78061593073334   17.06749417044123
H        -2.69135419896981   12.22594817345312   16.12986951261775
H        -3.69264184378171   13.04290918712207   17.33876482016472
H        -2.26853913930526   12.13430486466497   17.84352008023937
C         0.36160594076332   12.96731519895444   17.15050388837420
H        -0.15257924418694   12.64228753587141   18.06552653038004
C         0.74682284066061   11.72191393793506   16.34476060972024
H        -0.14215403503367   11.16153382093528   16.05901902956921
H         1.39399294416061   11.07688731017054   16.93356645413007
H         1.27040831409833   12.03867469247585   15.44506720022389
C         1.61973692679955   13.74370242889184   17.54779342107004
H         2.11551834035266   14.08251649675378   16.63967327863065
H         2.29433485419647   13.10770155211505   18.11471045192035
H         1.35909140360946   14.61159335733071   18.15007089579584
C        -0.38354129430445   13.76694456672354   11.97681036526199
H        -1.15201382875619   13.55194112251610   11.22183956118123
C         0.48309165382966   12.51735198622173   12.15443502683437
H         1.25098784513244   12.73510068864741   12.89428470526575
H         0.95339736498456   12.24837785803185   11.21241717931270
H        -0.11779562498380   11.67957809388500   12.50304140183666
C         0.47673287653675   14.93107692191255   11.47357301286471
H        -0.12779432678443   15.82780506374855   11.34868462302727
H         0.93348149317670   14.67805295503391   10.52010986720872
H         1.25615874324935   15.13143616037268   12.20657086482306
C        -2.45647270350879   14.13603571680371   13.23578029813474
H        -2.77723350143459   14.40853536061095   14.25215829406471
C        -3.06567039990220   12.75816411211140   12.93118022236534
H        -2.91473816836724   12.47787922331884   11.89140295128627
H        -4.13530185871104   12.77458498912690   13.12834809937461
H        -2.60205716783497   12.00106629763586   13.56350507726332
C        -3.02518777012775   15.21476480044520   12.30072614337955
H        -2.57938079558114   16.17921429470184   12.54245375163379
H        -4.10287848499316   15.28524334386887   12.43019063940681
H        -2.81754016819053   14.98528680047652   11.25824094361840
C         0.62207461897451   19.24328132534631   14.91822324882486
H        -0.36379925512830   19.64916400393909   15.09004787878358
C         1.71372914456614   20.11664896131448   14.76697606638632
C         1.56214393148959   21.51894314365259   14.83132613824420
H         0.57796677456565   21.92907796860624   15.00400510001161
C         2.63404310916676   22.35153604882950   14.67880475994505
H         2.51911239433633   23.42359820896742   14.72731097870064

