66
CSD_code = WAYHAI | q = 0 | S = 0 | Stoichiometry = C23H38CrN4 | MND = 4
Cr        2.43015739922310   10.34068763807734    8.38584713912863
N         3.45612527075083   11.58609658537668    8.31472414196187
N         0.85559818649494   11.08868450462939    7.96423735217618
N         3.20629204153352    9.11631146941680    7.30673263325623
N         2.34846456874701    9.73807369412774   10.19694944245673
C         0.57060126755569   12.43227057276064    7.49019463365385
H        -0.51319968794730   12.55828046452496    7.36022334422889
C         1.24782152381017   12.65381204960754    6.13336407209766
H         2.32082467931147   12.52370027236842    6.25892617568666
H         1.04423823186980   13.65762082621058    5.76924336919677
H         0.88232270319761   11.93599945344090    5.40010514959349
C         1.06336222400191   13.47549612965670    8.49502186668016
H         0.55521848540032   13.36171677705336    9.44959707690667
H         0.88745341343698   14.47883757540166    8.11590999792570
H         2.12989814807913   13.32476989937482    8.65316596617078
C        -0.29192557958924   10.24166318867155    8.19832452707774
H         0.08434818236171    9.26102708511976    8.52899866228401
C        -1.14096274864235    9.99350914343183    6.94059685381618
H        -1.65804788522649   10.89722901882633    6.62647667824170
H        -1.88780327734642    9.22961534193404    7.14644536508164
H        -0.51122465496385    9.65304293950597    6.12012056891350
C        -1.16072466690177   10.77282132117785    9.34958397831019
H        -0.53935578623480   10.93373062528243   10.22977724393994
H        -1.93452208923942   10.04808170001134    9.59417429529469
H        -1.63868368863199   11.71247895997926    9.08192805663236
C         2.37273397688350    8.06530866572792    6.76751047936321
H         1.40163794883108    8.12878360854967    7.27918604439541
C         2.10168623170840    8.26358204123816    5.26667916293814
H         1.75435618972262    9.28159066178192    5.08934616003511
H         1.34207637062195    7.56214334582044    4.92719664382997
H         3.00446612899039    8.10079835684380    4.68253023486611
C         2.91503537912320    6.64901572353908    7.02869419969595
H         3.76338652476075    6.42028168188862    6.38831033472714
H         2.13479212699775    5.91745485416283    6.82898188083028
H         3.23266100489497    6.54619377750853    8.06481073812776
C         4.57252713692697    9.14227970348076    6.80390463355877
H         4.74973683891935    8.26445169660491    6.16842261744759
C         4.83533918598537   10.39885909366229    5.97055537393429
H         4.18641349780101   10.42950938550155    5.09834230018485
H         5.87152795393914   10.42282906519133    5.64451594407963
H         4.63078429660037   11.26690816217502    6.59689048314410
C         5.54821011916140    9.08907814358007    7.98407698536807
H         5.39399094103333    9.97258576601857    8.60159448838538
H         6.57494774124583    9.07020693881631    7.62647322037974
H         5.37026471176833    8.19994706837645    8.58734260174371
C         2.02571375833262   10.45725587035415   11.32163185668148
C         1.35303363654732    9.64298764552314   12.20986868915302
H         0.98814601642850    9.92410272686273   13.17945539958224
C         1.27056281443667    8.36767905368844   11.61766346487473
H         0.82237552665289    7.48746646153480   12.03997352350799
C         1.87711520187858    8.47312397713554   10.39292953772343
H         2.03883998803916    7.69225222385868    9.66572202369647
C         2.38181003700513   11.86101461176576   11.49371232381523
C         3.62793132727663   12.34217283127382   11.09296289691462
H         4.33821928558729   11.66098416563484   10.64818948679046
C         3.95342202019422   13.67122387395175   11.27033773728126
H         4.92092709407946   14.03019770014794   10.95009659240457
C         3.05884191698024   14.55823357886725   11.85962664754047
C         1.82848880350940   14.07299880506604   12.28076331014725
H         1.12221410705906   14.74381239126055   12.75103451809994
C         1.49246632342198   12.74429375539431   12.10242359696501
H         0.52645175257261   12.38629339342019   12.43177370139215
C         3.41666799513942   16.00536183542123   12.01981148993876
H         3.30489786513321   16.52352903723078   11.06683717393242
H         4.45156431105612   16.11387781074633   12.33845162901449
H         2.77105965168349   16.48957327440658   12.74890128280339

