71
CSD_code = WAYJAK | q = 0 | S = 0 | Stoichiometry = C23H43CrN3O | MND = 4
Cr        3.46240252472792    5.96381209953263    1.77545017516286
O         2.45373253229312    6.99389370748057    2.77493029853482
N         2.45546408920766    4.92840537332934    0.70770722491637
N         4.75776455546016    5.09783095863865    2.67887339618341
N         4.31352005697453    6.84559188170448    0.72527250281753
C         2.48057109279556    4.70816031975738   -0.72562454044365
H         1.62050819584437    4.09136251184952   -1.02181127160997
C         3.76348607846433    3.96337943468588   -1.10914129101749
H         4.61516269084537    4.57682663492331   -0.82728574641021
H         3.78795577509604    3.77589000146891   -2.17986341632183
H         3.82182779791341    3.00972363214900   -0.58684853864081
C         2.40701080446005    6.03719169867241   -1.48052711857438
H         1.44977449285693    6.52401389478024   -1.30663311156860
H         2.53345285058929    5.87608747220013   -2.54776775298858
H         3.20550378537502    6.67959167521026   -1.10996408841521
C         1.34618482762782    4.36294502492476    1.42792239644796
H         1.49207146118848    4.57571159122716    2.49615925423637
C         0.01550204856993    5.03173875311254    1.03789459213096
H         0.09943707549829    6.11146815326541    1.16267307627009
H        -0.78742977178794    4.66637079613345    1.67525207106592
H        -0.24222697813922    4.81855041893344    0.00275536123049
C         1.23679502962685    2.83310581133205    1.29923003597734
H         0.95378166427574    2.53854076608232    0.29141633946805
H         0.48125235357895    2.45860462064107    1.98692662760720
H         2.18970660920360    2.36619517576731    1.54106868598677
C         1.86789944088467    8.18156017658532    2.82709508046799
C         1.51144820993820    8.78365659543601    1.61493921457912
H         1.79439541671005    8.26276371208716    0.70732057170063
C         0.85240110285649    9.99141302568394    1.58356008105667
H         0.59111087763518   10.43904691537163    0.63552874137519
C         0.52425516352627   10.63680086105766    2.76914407082396
C        -0.20064045429683   11.94977378354423    2.74266217573499
H        -1.17669891944461   11.83671796383860    2.27139004118328
H         0.36294392927098   12.68201853468203    2.16585277622994
H        -0.34529108949284   12.33725231412136    3.74804103087926
C         0.88969825084440   10.04427702884443    3.96909896985788
H         0.63677750433438   10.56437793561878    4.87913022127613
C         1.55976762455019    8.83063573998836    4.04166631880920
C         1.99741240275147    8.22432948916010    5.36926762592544
C         3.53116681258480    8.14136078162449    5.37156410821139
H         3.89255992043139    7.57207825537274    4.51554407722613
H         3.88506426429211    7.67026263336875    6.28824878364957
H         3.95715653987506    9.14121043543702    5.31137060239190
C         1.38576665598930    6.82445170981883    5.52655206624951
H         0.29872075421543    6.88580998641984    5.50607192875038
H         1.69000349670247    6.38238452621393    6.47433594951422
H         1.70717588614723    6.16676673498953    4.72344520884124
C         1.56598807852963    9.05702941047819    6.58064055256487
H         2.00204996738556   10.05248661797730    6.54873784659313
H         1.91069771441653    8.57010135808656    7.49136047994903
H         0.48283236701191    9.14184828230386    6.63416485598151
C         4.28924655579421    4.06178148269196    3.56105954710185
H         3.19306039814629    4.04697805205922    3.49979569560848
C         4.77803467964084    2.66759860439252    3.12719817973607
H         4.58970892931282    2.52991157924868    2.06289454372343
H         4.25409287989676    1.89424837383824    3.68542210624157
H         5.84501942108171    2.55384199152851    3.30384763357115
C         4.63185614519325    4.31337153060603    5.03950638624863
H         5.70328425593784    4.25481937203845    5.21578201630643
H         4.14239751357682    3.56661620333312    5.66168200147367
H         4.28447816169487    5.29960710588306    5.33843146421658
C         6.19633237267184    5.30303766378016    2.64680989294214
H         6.68483440287658    4.60143279783098    3.33706652177334
C         6.75253043440313    5.05652003737123    1.24263212775409
H         6.53937757933392    4.04027884789115    0.91870777190803
H         7.82783219418125    5.21475080366166    1.22943179423003
H         6.27290650865010    5.75748840622756    0.56310110732438
C         6.53467512448696    6.73045812218382    3.09007403372397
H         6.00192706124327    7.42673422131373    2.44344772629444
H         7.60423082052432    6.90773051075979    3.00856516412343
H         6.23150100115002    6.89578707739682    4.12204574382538

