66
CSD_code = WAYJIR | q = 0 | S = 0 | Stoichiometry = C28H31N2NiPS3 | MND = 4
Ni        0.38157934692441    7.44610250854033    2.21966976050915
S        -0.28049296553174    5.84901618302283    0.74497135124876
S         1.67836957967540    7.90611922522046    0.48410803164729
C         0.74361830823045    6.71090354058534   -0.29792975067810
N         0.80248416704749    6.49487813825890   -1.60873989852181
N        -0.73979452990112    6.89695258991388    3.54706348935452
C        -1.71862334665302    7.05515529452042    4.19192994338427
S        -2.97889408096453    7.14042127257793    5.13471098862104
P         1.16313804591670    9.00737269819713    3.52043336281351
C         0.18078319866638    9.78726880298836    4.82901883947783
C        -0.12857937659375    9.03715027187650    5.96055907201679
C        -0.93729516754144    9.56781272138084    6.94544508200990
C        -1.46491171293638   10.84742725571799    6.82182284427023
C        -1.14841006919926   11.59128615995597    5.68953110224881
C        -0.33975867398659   11.07071180552676    4.69856746398425
C        -2.35790438684702   11.42390516822088    7.87572386713267
H        -2.57263184632372   10.68981334027920    8.64741203822070
H        -3.29798249297326   11.75163918389197    7.43498799333742
H        -1.88727743024635   12.29099084441843    8.33897337732858
C         2.44962400214958    8.12005818029164    4.44311550667024
C         2.73948212323987    6.82312965568424    4.02635165670484
C         3.69957834152382    6.07842589630164    4.67931666487833
C         4.38893370043889    6.61225720434179    5.76511659838568
C         4.08324409925308    7.90157477951447    6.18569656657855
C         3.11986384991402    8.65328833286813    5.53839720001782
C         5.43059771530411    5.79616270386605    6.46552458939479
H         5.83366033106490    6.32761532779468    7.32355291538601
H         6.24849473023431    5.56399048551239    5.78425481919812
H         5.00596201306326    4.85307961761688    6.80594241444104
C         1.98976595324168   10.40831481546502    2.70490210259711
C         1.26619074660273   11.05708384018126    1.70774383492046
C         1.81195173214458   12.13006803744914    1.03115798411901
C         3.09762989829840   12.56848506046739    1.32429816241751
C         3.82263974209933   11.89998466102050    2.30548802813401
C         3.28206847052504   10.82858034444972    2.99062317218820
C         3.70812346365736   13.72654882629191    0.59697427343425
H         3.01410112510681   14.14317191732452   -0.12828761764045
H         4.61043603748166   13.41130396223843    0.07437486903949
H         3.98930323873483   14.50929599673622    1.30038309793344
C         0.07910898831861    5.42175432541119   -2.25293817600729
C         1.06301525678322    4.36517998267131   -2.75487383459001
C         2.08196548816942    5.00735418659096   -3.69310666919820
C         2.78251759171995    6.16377345914310   -2.98401131600376
C         1.74710719608785    7.16551335602365   -2.47236769342290
H         0.25982367025203    8.03302279038721    6.05738719942444
H        -1.17781253922233    8.97142777299642    7.81321467138757
H        -1.55151548898461   12.58843899859145    5.58041062275718
H        -0.11022716131769   11.66197879533718    3.82312865239455
H         2.17375268282559    6.39877345878424    3.18413207130572
H         3.91735690380907    5.07070029935189    4.35628385258845
H         4.60165510602519    8.32018313410051    7.03683890451209
H         2.87330456630607    9.64550923462563    5.89090456665627
H         0.27307190242051   10.69867039696671    1.46013039052211
H         1.23900455032447   12.62744138497745    0.26127207427836
H         4.82915860800709   12.22365324107635    2.53074066176494
H         3.86747656606790   10.31400083447019    3.73807868112648
H        -0.48092826412670    5.84211476214475   -3.09575723314442
H        -0.62461575427366    4.99101713862058   -1.53916562319497
H         1.57683051667560    3.92435665469792   -1.89848694414257
H         0.51390668608521    3.57476706062621   -3.26693803835026
H         1.57139841080812    5.38205605494622   -4.58363414503490
H         2.81524978593195    4.26604631979671   -4.01373767236286
H         3.35602930546970    5.78312232323133   -2.13662897095442
H         3.47043082427713    6.67016095307531   -3.66175000299402
H         1.19598772109181    7.59637829405051   -3.31600502182939
H         2.22767899961958    7.97135813679398   -1.91490680470455

