72
CSD_code = WAYJIS | q = 0 | S = 0 | Stoichiometry = C23H43CrN3O2 | MND = 4
Cr        9.90286299853063    1.15375645572340    1.77868285809969
O         8.86798654982196    0.17971657922784    2.80552066343578
C         8.29391468510753   -1.01072870274448    2.91559060817210
N        11.16659046633714    2.08217467946542    2.66422389347189
N         8.91925039530411    2.11652393689383    0.62390365838377
N        10.78645422048496    0.21628857576956    0.80640705746558
O         6.34931518496236   -4.67927267107491    3.13025355630679
C         7.37621496675361   -2.93545364265789    1.75326132174383
H         7.18808796866100   -3.44006755894754    0.81911860098472
C         7.27926828087581   -2.79351008838094    4.14800305611211
H         6.97153889396047   -3.27022007465876    5.06284059815585
C         8.01583140139009   -1.71182965605398    1.74131917311943
H         8.34085869647397   -1.25988334983196    0.81147292275816
C         7.92399754458865   -1.57027249524181    4.16087461639534
C         6.99558877783971   -3.48279009574608    2.96987877420242
C        12.60493767228937    1.87593375288953    2.69384054011052
H        13.07240523465373    2.62464099085789    3.34832389652535
C         7.78332381027775   -1.60455138036368    6.70267585296455
H         6.70038472096622   -1.70305115507340    6.69497186921467
H         8.06534643378792   -1.04530552288346    7.59314932421684
H         8.23096903530730   -2.59260754163302    6.77154897749941
C         8.27862376659632   -0.85885993694656    5.46009734374247
C        10.67101719310529    3.17476529304671    3.45943616998959
H         9.57716763238452    3.18192341273116    3.36523357160479
C         6.08798267618016   -5.44863387221956    1.98383986482517
H         5.41706617341199   -4.92783127316971    1.29213057682814
H         5.60137562516663   -6.35532567354217    2.34071568324020
H         7.01135273235141   -5.71603772934424    1.45946653591778
C         7.78566942335873    2.71308197566261    1.27811368640777
H         7.90431406355419    2.56756609035245    2.36072543810139
C         7.64891534554390    0.54158784274997    5.47362533953069
H         8.01381441702338    1.14072103623233    4.64380498016495
H         7.89264828299469    1.05655218012539    6.40175436811308
H         6.56575692030897    0.46594036325314    5.39336856062118
C         9.80908550481646   -0.75702956790404    5.54128278330598
H        10.24533596120076   -1.75329031915194    5.58081333496528
H        10.10663845685483   -0.21398988636572    6.43783588417291
H        10.21306206380514   -0.24924449707584    4.66585011197606
C         8.98276193432807    2.25002547781087   -0.81875626459229
H         8.12821433577426    2.84199863732659   -1.17542999774854
C        13.20731760253951    2.02218763825413    1.29475923330170
H        12.74768194872149    1.27585519124377    0.65050168650090
H        14.28193366160608    1.86258651973247    1.32799692433658
H        13.00770737083378    3.01328493568974    0.89356514166302
C        12.92423919828591    0.48349104436454    3.24867323383656
H        12.57638830749937    0.38911925340758    4.27555393575769
H        13.99639287257626    0.30436531962961    3.22614884797085
H        12.41964336758320   -0.25757326302483    2.62991591986150
C        10.27248317830087    2.97853879124382   -1.21063110099807
H        10.30907023303453    3.96421182656791   -0.74938091703512
H        10.32906167606049    3.09698941543386   -2.28993812471053
H        11.11845884551102    2.39094448328808   -0.86364126160710
C         6.47240025186308    2.00718961225312    0.89462865813618
H         6.24241167545921    2.15201295051883   -0.15872185928256
H         5.64865348052629    2.40364783168324    1.48508588109887
H         6.56270609720461    0.93842891283807    1.09007743399357
C        10.96979199217758    3.02816112219568    4.96127200848798
H        10.60756393660158    2.06750105755754    5.31995815007179
H        10.46750270109643    3.81971393400103    5.51400684795297
H        12.03605280074870    3.09453153005352    5.16408811903722
C         8.93687000449671    0.87715606622403   -1.49327901025894
H         9.73100628194721    0.26570759669838   -1.06564124812603
H         9.08750609437239    0.97459640095290   -2.56508186744844
H         7.97941669873544    0.39343372516511   -1.31210332181030
C        11.17109988274188    4.53673787960228    2.94389097840098
H        12.23397080643222    4.66231475979205    3.13652439642519
H        10.63556575564563    5.34606984413419    3.43620580613576
H        11.00716730778288    4.60145602151310    1.86867040094078
C         7.66651455629222    4.23106102967740    1.05334927211003
H         8.60894351966487    4.72129205151201    1.29023871711701
H         6.89034525826312    4.63903950661525    1.69765255453396
H         7.40710218805197    4.46093642196005    0.02258477297347

