54
CSD_code = WAYMER | q = 0 | S = 0 | Stoichiometry = C20H31NOZr | MND = 12
Zr        3.18248321573920    1.37022036952647    3.08448418015395
O         2.12196491249274   -0.17488765414550    3.22180080793144
N         0.81526272135248   -0.28714708259786    3.77224171145971
C         3.12781924781007    1.57129756126489    0.84440856005454
H         3.25465848111500    0.59528920422991    0.34629082709583
H         3.97025302277424    2.20362114563296    0.51727362112737
H         2.22995306236136    2.03168642065022    0.40549105061753
C         5.04768055502760   -0.43392671050890    2.90060544953929
H         4.92239768320178   -1.36685196221218    2.36562592922711
C         5.58281743573832    0.75707852026961    2.36863838315513
H         5.97599342217170    0.87765778543205    1.36737080015107
C         5.69048531997072    1.69433664871552    3.41377798709560
H         6.18013608243197    2.65811267703946    3.34366757114220
C         5.21892044846818    1.08361355132083    4.59588886903949
H         5.29830761384080    1.49177847954872    5.59813570571931
C         4.83468488424911   -0.23665133280445    4.27703924482181
H         4.57143467660510   -1.00950435724936    4.98784562848578
C         1.37695391313066    2.71254014537524    4.21587137004602
H         0.43869840125517    2.28245148033916    4.54098269966715
C         1.60755396980306    3.33876147675470    2.97367837320305
H         0.87611510590032    3.48361638599661    2.18862933042427
C         2.89915293959163    3.91191708503821    3.00685579606745
H         3.32387469731335    4.55370559579610    2.24518257711326
C         3.45619577118454    3.65114031600807    4.26926511828530
H         4.37823348066470    4.06897411891238    4.65190583447697
C         2.52964005569996    2.89275799860974    5.01319798526369
H         2.61790996036794    2.65446577257573    6.06720823898182
C        -0.12746153404450   -0.68885160866363    2.70544613608342
C        -1.51211713968062   -0.97859779311018    3.30389007288022
H        -1.93814222175009   -0.04071422337695    3.66695494620183
H        -2.15811958217011   -1.35649381856678    2.50977369126750
C        -1.46011503580070   -1.96276171344101    4.46262778752310
H        -1.11672791578195   -2.93986836761839    4.12238788485346
H        -2.46007044990599   -2.09660851950013    4.88069932775751
C        -0.52846670907195   -1.40175544602963    5.52629922724010
H        -0.44822968108643   -2.09069779017059    6.36899760250885
H        -0.95477485609907   -0.46633723313293    5.89526871586746
C         0.88526928950468   -1.12384799468534    4.99197347923770
C        -0.25467972531022    0.53393451987829    1.78208750344072
H        -0.60237482264778    1.39483698277385    2.34942785211281
H        -0.96628626095105    0.32970212823374    0.98552418492270
H         0.72220430383424    0.75763243201657    1.35105443562830
C         0.36911656728705   -1.87056325767564    1.85566976489893
H         1.41856579487200   -1.70997551380734    1.60832410670562
H        -0.20391519605378   -1.92655175091026    0.93350571811831
H         0.27129505652603   -2.81812394879636    2.37459197594548
C         1.66315124333589   -2.43807154172822    4.79697669106664
H         1.04520423872143   -3.21162123767398    4.35267693608337
H         2.02248735759152   -2.80524538072395    5.75546365219680
H         2.51662098470241   -2.25561986969764    4.14558795416129
C         1.62406319344180   -0.27068946662992    6.04023811315089
H         2.60077820264837    0.03036440491738    5.65001924554327
H         1.76099658831761   -0.83863298898376    6.95785723309695
H         1.04234722929724    0.61970535757919    6.27001211114678

