70
CSD_code = WAYMAK | q = 0 | S = 0 | Stoichiometry = C32H28BN6O2Rh | MND = 4
Rh        9.38246828046537   11.92799667491003    7.95275220543987
N        10.12368811376987   11.39857687932789    6.08326706261879
N        10.72351834682289   10.54454125801187    8.63435397979872
C         8.17534149272267   13.13792420769567    7.26251979001714
C         8.46572151356075   12.05929110796717    9.55265770145117
C        11.64172131959698   10.92697180696325    4.56316496889102
C        10.42121316489616   10.98364449300333    3.91716003951404
H        10.22701705097220   10.81264592757882    2.87802648214144
C         9.48630155578429   11.27715911964251    4.91481884383750
C        12.97407525683133   10.63398543281902    3.97399442513083
H        13.43020496912378    9.77297839630240    4.45908774689718
H        12.86164724508328   10.42295307427178    2.91381205239320
H        13.64424232023423   11.48328094613061    4.09371843380255
C         8.03964989954251   11.41487205517828    4.76547155365789
C         7.16917362612045   10.81621582182932    5.67524492000341
H         7.57208758717330   10.22215310833089    6.48680648364061
C         5.80161464577613   10.95486600500392    5.52675194789422
H         5.13479734140642   10.48963311276136    6.23773559308344
C         5.28691975062761   11.68604717388144    4.46924575411196
H         4.21868290838594   11.79803325742527    4.35693901299928
C         6.14534696231287   12.26955996369638    3.55203202461847
H         5.74616710394116   12.83653639914987    2.72377239916304
C         7.51346573187823   12.13320281228469    3.69508947509671
H         8.18347650811923   12.59860927791155    2.98699049785632
C        12.74971344357795    9.77589422350308    9.01517607096551
C        11.91904765469456    9.22645376726427    9.97393139812706
H        12.18726169373805    8.54252708209496   10.75297019459527
C        10.64624718495621    9.72865223439837    9.69163029029832
C        14.21377619036208    9.57910704662631    8.85588545903106
H        14.73417807226787   10.53409515243869    8.89830378182304
H        14.58155695623766    8.94065305680393    9.65474424959123
H        14.44122138773412    9.11137201853720    7.89942809049551
C         9.38884902602522    9.40864773219100   10.36240369970833
C         8.25002015626972    9.11795747495233    9.61171965467646
H         8.31665864992157    9.10788982441448    8.53138785836908
C         7.05791473140529    8.81616140317884   10.24275376077554
H         6.17938632430756    8.59383354868784    9.65498701378247
C         6.98924210260976    8.79819906906712   11.62603617085812
H         6.05562875540917    8.57025282611777   12.11861276984715
C         8.12102963282043    9.06815197526844   12.37748499477526
H         8.06972908528307    9.04992015909688   13.45627862730536
C         9.31688943058371    9.36735777530397   11.75166439791100
H        10.19739895474595    9.59073030450321   12.33622659119212
C        13.47269651309477   13.77261478843723    7.13323117878101
C        12.95362384881251   14.98773515675606    7.53243723213623
H        13.44732963453094   15.93828392647236    7.52076700703059
C        11.65578811606779   14.70337408989587    7.98882509377208
C        14.81510337270156   13.47397642292075    6.56800181991687
H        15.43734558675016   14.36349172011399    6.62036733117160
H        15.29892134119290   12.67053434516834    7.12009423027819
H        14.73606860878875   13.16655656260808    5.52573175391870
C        10.65887142448874   15.61860340406375    8.52711632736826
C         9.77737427451658   15.18798436023550    9.51612238340013
H         9.87464156347673   14.18143975138634    9.90023338158261
C         8.81261050669123   16.04190380049796   10.01471229131241
H         8.13149109890816   15.69516848281630   10.77844463202440
C         8.72220078961439   17.34058458872516    9.54104499535290
H         7.96788746325107   18.00886723049160    9.93013553414029
C         9.60499077908299   17.78169039397756    8.56895931879661
H         9.53850801540647   18.79549725877584    8.20044362405338
C        10.56767399027587   16.92846853184485    8.06315546467007
H        11.24454762665123   17.27068298693693    7.29374576647717
N        11.42568346743170   13.39961165415841    7.86209085395499
N        11.42880569037374   11.18310164239567    5.86760870482975
N        12.00045504370574   10.56097191601645    8.21945189040283
N        12.51980734833088   12.83862708356596    7.34098118140729
O         7.45513792203929   13.93913465440657    6.87567780854872
O         7.81232853427748   12.20527794364485   10.48511487472677
B        12.48082026463056   11.34955865007863    6.98437331952725
H        13.53219504679756   10.95602366709543    6.62449353228462

