102
CSD_code = WAYNAL | q = 0 | S = 0 | Stoichiometry = C49H43BN6OPRh | MND = 4
Rh        8.27195753044809    7.56284952239665    5.31049877962227
P         9.35082109007335    7.87170670730492    3.33114732321262
O         5.92807918355134    6.22624672448063    4.05930566542962
N         9.77967357627142    8.31450833412031    6.42476707681335
N         7.32508211009075    7.34069985247465    7.12177576184473
N         8.23522351059234   10.76325689314381    5.08121863703203
N         9.41255192354450    9.35463367662905    7.17825456006816
N         7.23365172008953    8.46585753068607    7.83240354700117
N         7.42355547389575   10.03339164504188    5.86692775820636
C        10.47220544729265    9.85318840842771    7.83687114014938
C        11.56986525642773    9.09096880516425    7.49290170904683
H        12.56982724777191    9.20935622547910    7.85639301101342
C        11.09376613421387    8.12112180538339    6.59823284617005
C        10.40403049532892   11.02503685496956    8.74698632543829
H         9.97275661158715   11.87923806713299    8.22896957049161
H        11.40370653759081   11.28129408208697    9.08808496607827
H         9.78247617039962   10.80695259601572    9.61430718882674
C        11.86578440794179    7.06336426252016    5.96300387648994
C        13.25761062450304    7.13755533862854    5.91058823591580
H        13.76642222549744    7.99036845516770    6.33215731799751
C        13.99048117579309    6.13833492267164    5.30072008419180
H        15.06792902925136    6.21134577079764    5.26535261911881
C        13.35285923206465    5.04933261626043    4.72942834883261
H        13.93000728481990    4.27330743893732    4.24836436259935
C        11.97193126287747    4.96047729979168    4.78209001139247
H        11.46605372907396    4.11380562767580    4.34067040663182
C        11.23832581525238    5.95406325258658    5.39927954386437
H        10.15618373963886    5.88205946770731    5.45699567310388
C         6.49623703277678    8.25306482213606    8.93723456539559
C         6.07788447379462    6.93496778868090    8.91247631738340
H         5.48241520256310    6.42939949891125    9.64501954909505
C         6.62600464474401    6.39031953532927    7.74419466329892
C         6.22836265560834    9.29280762539755    9.96455193300664
H         5.79395721211484   10.18307216531223    9.51377489139430
H         7.15342056402667    9.58739674074269   10.45856047443405
H         5.54216185653547    8.90124517505314   10.71084701160575
C         6.49737736160604    5.04126980578730    7.20697312420440
C         7.58180487334325    4.43294697360642    6.57832450761050
H         8.53448725718826    4.94654023244380    6.56150728470735
C         7.45256621429964    3.17372925820117    6.02382846073153
H         8.29933169164804    2.71037542731453    5.53799814421596
C         6.24267384542535    2.50374490437184    6.09782890480884
H         6.13908977693239    1.52131297237568    5.66115525938180
C         5.16588007315572    3.09365399165841    6.73944137446841
H         4.22305361023089    2.57014440506704    6.80274758183057
C         5.28933245498880    4.35444576942430    7.29232459966617
H         4.44426755539801    4.82130854220735    7.77683939880376
C         6.13181463330869   10.16857017179377    5.45427917544079
C         6.13361417317275   10.98609781934947    4.34813950019991
H         5.27922715218331   11.27959664840469    3.77258036776634
C         7.48144303409311   11.34910601466252    4.15328732286005
C         4.96581628899070    9.52555534810485    6.12108995974311
H         4.89311165063462    9.83500706498690    7.16300061807738
H         5.04319100166891    8.43812543336017    6.09126843856782
H         4.05358748515685    9.81749606594887    5.60617989554630
C         8.02618416433785   12.26169333541217    3.16278301557836
C         9.37121769282640   12.62931787230186    3.19638529156652
H         9.99866575226895   12.23087783480440    3.97622972379854
C         9.89034325240087   13.49998442539738    2.25961798610149
H        10.93737023282723   13.76715058267484    2.29642914001575
C         9.07389589520425   14.03878792046494    1.27873078332761
H         9.47900521822053   14.72335165568401    0.54720262383207
C         7.73103510715982   13.70278112974867    1.25038933710859
H         7.08457593785340   14.13012422695936    0.49649925761976
C         7.21167061781376   12.82216586818785    2.17933993052783
H         6.16385778504896   12.56731685458865    2.14008576345056
C         6.84758859726923    6.77473899579479    4.48416238971408
C         9.46112154276422    6.39575179723993    2.25066549590070
C         9.07621816736054    5.15466724757427    2.74276832863557
H         8.70528469964487    5.07791279488304    3.75732951163815
C         9.14790953469627    4.02800771233434    1.94289797957819
H         8.84132481225387    3.06895980818731    2.33469931403991
C         9.60577929077290    4.13093553016579    0.64057309360516
H         9.66342758866172    3.25279581142342    0.01433758240152
C         9.98138895821440    5.36671513741573    0.13824068076884
H        10.33038296388084    5.45204976126983   -0.88071169747594
C         9.90635847838792    6.49395715817912    0.93512306887349
H        10.18804284804772    7.45754205331667    0.53392281059116
C         8.60812429419409    9.01486609329177    2.10911079977641
C         9.36967443923131    9.83582210149910    1.28396900884131
H        10.43967561896686    9.90215318592960    1.42038081229862
C         8.76179992035277   10.57651332817786    0.28666985757760
H         9.36188563982100   11.21014187510352   -0.34963184882718
C         7.39119354517408   10.51289133552353    0.10718351737379
H         6.92144885206016   11.08981975384495   -0.67547952262000
C         6.62409594486996    9.71636070935690    0.94074890235892
H         5.55214657579584    9.67296929540654    0.81365941828745
C         7.22926103087318    8.97263216848568    1.93568891562294
H         6.63196653220494    8.35381755519978    2.59035710046721
C        11.06439764043994    8.49295151090725    3.36459854149396
C        11.24270113884168    9.69515656031537    4.04562615424744
H        10.37533137019291   10.17475471829897    4.48339092862072
C        12.50084629177939   10.25535475917210    4.14915700731608
H        12.63548821624376   11.18816192677628    4.67780942254035
C        13.59099754617124    9.61570389369787    3.58012032146656
H        14.57687650392389   10.05051188683897    3.66015089796492
C        13.41795903735703    8.41513206480964    2.91257241729881
H        14.26835171861831    7.91249528391506    2.47500803470534
C        12.15986146069931    7.84790031691156    2.80662186682332
H        12.03745114757307    6.90176658018516    2.29982128495107
B         7.92913700404844    9.72815515473041    7.29568586656585
H         7.75994707120142   10.65266004332842    8.01782921280679

