80
CSD_code = WAYNOC | q = 0 | S = 0 | Stoichiometry = C33H32BF10NO2Zr | MND = 12
Zr       14.00208624619860   11.99311699472127    5.90823652523262
N        13.61040994087484   14.56813084040926    4.29657198375726
B        11.41408404658948   12.22161230222612    8.20854773130185
O        14.07260184382447   13.80978582139037    5.40878827479214
O        12.60428850093592   12.47004774338234    7.33657409732034
C        12.38840498929491   13.41462538997979    8.39952714185105
H        12.14002723347523   14.40277343209379    8.01631864198353
C        13.44427387267047   13.48601923354031    9.48022381347885
H        13.65972855689519   12.50069281009997    9.88932467323118
H        13.06596063680080   14.11010786474753   10.28695681663495
H        14.36484373477388   13.93310605280702    9.10408806287822
C        12.55915252572634   15.50808165017102    4.74066033671739
C        12.15735374932701   16.45529505668558    3.59931849877447
H        11.63634329411497   15.87946391297559    2.83163893052995
H        11.45790612402164   17.19036884663597    4.00020888749121
C        13.34781301788896   17.14353565178027    2.95118025416563
H        13.00950756656642   17.76023457900988    2.11639892634450
H        13.84947414449013   17.80362650284266    3.65893410168793
C        14.29524935269048   16.06701868485244    2.44634765067018
H        15.17679445740172   16.51483910022292    1.98482090131760
H        13.77495066252518   15.48537573384234    1.68254705940553
C        14.76823721191240   15.11624880387900    3.55758365618851
C        11.33362229408559   14.63653235589189    5.06408265185718
H        10.99546880853115   14.12473155029610    4.16533637801356
H        10.52304237142415   15.25779652668259    5.43559910085449
H        11.59949279105388   13.89179716440258    5.81236830511416
C        12.95106348920431   16.30863410333085    5.99577588643575
H        13.53668470959715   15.67279748877692    6.65944224585726
H        12.05950259819835   16.64135863103241    6.52117137930850
H        13.54202147327952   17.18388544687667    5.74527902908139
C        15.44208783481670   13.91187742612482    2.87563088457305
H        15.67328808356782   13.14827171846307    3.61913476661746
H        16.35693521451476   14.22456848850024    2.37822714251767
H        14.77529003521912   13.48461212376814    2.13003450335951
C        15.79325993471574   15.82039738719343    4.46407477869540
H        15.48059749597280   16.82899934149653    4.71377127459885
H        16.75632567610195   15.88061108727146    3.96316567380410
H        15.90894477250227   15.25529479596833    5.38654594427325
C        13.98617355178893   10.85742193096165    3.69382696744535
H        14.79277223633820   10.86625331752048    2.97029171583340
C        12.87470712093567   11.73074523141083    3.69980445234498
H        12.70532690683845   12.54999745568560    3.01541357106444
C        11.94979034577266   11.25244860813271    4.65466525213092
H        10.94546131355293   11.62658000104295    4.80567707421662
C        12.47808011020894   10.07180732507837    5.21728679019612
H        11.94322977489651    9.39179208268079    5.86383281914040
C        13.73322493289006    9.82902451913212    4.63044236257745
H        14.32482207886092    8.93195937273384    4.75910934286893
C        16.62013838261744   12.52946307098997    5.88036127764781
H        17.17509713052281   13.21778230340271    5.26055316479941
C        16.44911731229635   11.15418399652411    5.63371049770766
H        16.85155473135989   10.61186699116853    4.78686247208327
C        15.87011885624920   10.57448032006947    6.78091115811451
H        15.75169205164096    9.51467836897754    6.96683580737232
C        15.65425820354561   11.60387911411796    7.72597783184792
H        15.38573706148346   11.45376298228545    8.76364251285560
C        16.11756024252834   12.81459910783214    7.16202581166495
H        16.21160226303734   13.76441002911178    7.67356156906179
C         9.93857654490511   12.36687540880529    7.55841500716697
F         9.75396303622968   14.68883169970244    7.96564743603505
C         9.21651055350155   13.55358995534632    7.49988379400534
F         7.29277482478569   14.80313782314379    6.92011693308087
C         7.93322468751844   13.63020103697217    6.96723976868963
F         7.42687494161480   10.15859736718332    6.07440470402334
F         6.08696844872810   12.54324369644867    5.96601383823546
C         7.31676373537746   12.48421932247994    6.47990955532081
C         8.00037681063345   11.27472045551676    6.53480109816625
F         9.91330240293322   10.05336595239096    7.09819186592574
C         9.28303289188974   11.24162872333618    7.06753386921471
C        11.53688690464962   10.92406211087780    9.15352484244146
F         9.71895136416976   11.57598857049679   10.49963664533898
C        10.68263574621979   10.68651005803591   10.22582583972531
F         9.94982033372425    9.36867913555185   12.05099064752389
C        10.78609919219855    9.55530293766403   11.02764494294878
F        11.88568612431578    7.52084593622282   11.52848121755888
C        11.77255153430143    8.60773130004973   10.76353713445782
F        13.58557667410714    7.90954987127721    9.40513232154707
C        12.63526228590020    8.80512844832215    9.69062648855029
F        13.33468684365892   10.11088935236588    7.84762134694828
C        12.49219021947198    9.94829206458783    8.91789134142040

