39
CSD_code = WAYNAN | q = 0 | S = 0 | Stoichiometry = C14H16N6NiS2 | MND = 6
C         2.84859931151038   13.86927287674545    1.00089199419066
C         3.74015130555044   13.83824042154164    2.06072006617570
H         3.86131532274411   12.92704947010083    2.62957933818749
C         4.45046415348553   14.97493505072784    2.40786079382187
H         5.13995385018852   14.94268127898765    3.23701056269887
C         2.65470852745615   15.06355125506419    0.29272945348803
C         3.35645426193956   16.19995780308058    0.66022272062575
H         3.17808270369300   17.12951431714938    0.13808330530241
C         4.25911526724932   16.15323255282421    1.70912321891126
H         4.79831035419894   17.04407411035607    1.99121789034956
C         0.36064116685351   15.16574192076234    2.40118455990547
H         2.06622805887399   12.04080894142918    1.37031831837157
H         1.90948677426880   14.53229675735888   -1.53295762888800
H         2.25895392949673   12.36422437189032   -0.24701259675436
H         1.41893907368874   16.02270696038982   -0.98968132236930
N         2.02399175147030   12.76571616092543    0.66037293846909
N         1.64918334482732   15.07411686335840   -0.70921577066655
N        -0.18772337161774   14.54185075181164    1.56251657893444
Ni        0.00048218991847   13.64557881501576    0.00129685600304
S         0.93321513644221   16.01885544843254    3.60231763071476
C        -2.84747384421347   13.42608681544536   -1.00009592131968
C        -3.73856435399279   13.45890245430733   -2.06025863649580
H        -3.85839055187906   14.37061277743027   -2.62856926770437
C        -4.45008095538316   12.32329442308892   -2.40846129015641
H        -5.13918800875620   12.35693575362738   -3.23787212494418
C        -2.65529924540978   12.23111990415839   -0.29263548429847
C        -3.35823462908285   11.09578751591813   -0.66120178467866
H        -3.18122623167742   10.16566929667808   -0.13959782967232
C        -4.26039737866218   11.14429349303952   -1.71045470501580
H        -4.80055632227257   10.25429269682069   -1.99337051753535
C        -0.36087825433166   12.13032520506703   -2.40161187604520
H        -2.06278480062090   15.25383453578970   -1.36803111200049
H        -1.91029045519844   12.76034630950548    1.53373176321075
H        -2.25664723796554   14.92965734419955    0.24897537966170
H        -1.42121192600674   11.26969448759451    0.98972432539798
N        -2.02166419699605   14.52843768792601   -0.65852847170307
N        -1.65026871082650   12.21872224326553    0.70976808783694
N         0.18883774643657   12.74806129560750   -1.55921025096343
S        -0.93623375539706   11.28761963257407   -3.60887919104423

