96
CSD_code = WAYPUJ | q = 0 | S = 0 | Stoichiometry = C47H44ClOP2Rh | MND = 7
Rh        3.17833210584162    1.59002506271743    3.54141617445602
Cl        2.20496627951137    0.99824811042124    5.53591471103921
P         4.35539227833156   -0.45554571708880    3.67894904247563
P         4.69360069292269    3.05764848723746    5.08040009674310
O         5.20170403388763    0.42591911780084    6.07546278741315
C         4.77074745600786   -0.85044964845687    6.29317973925221
C         4.26367502872030   -1.49961365255034    5.17077273628235
C         3.78691627197612   -2.79395891294103    5.30186343624115
C         3.80601550895850   -3.39998556159001    6.54602442869863
C         4.30866219446143   -2.73798931989452    7.65361659998832
C         4.81032217426015   -1.44834109618359    7.54636376658274
C         5.46791165853829   -0.66790274635116    8.66759503781428
C         5.12862915434130    0.79663023458936    8.45378770878603
C         4.95618197660493    1.71496619963638    9.47868096325825
C         4.74060283776054    3.05445859194488    9.20357608244612
C         4.67604584985844    3.50441076603328    7.89842092447547
C         4.81472756693483    2.60665544861583    6.84920442576184
C         5.05596811624781    1.26512556628878    7.14301483971801
C         5.05757536281205   -1.17152484584793   10.05025391441241
C         6.99512563948262   -0.82125331996494    8.50681812456287
C         3.65998614552399   -1.60969343751539    2.44704621076626
C         2.31927544775198   -1.95030880108826    2.61782313157657
C         1.68168486514513   -2.76564148394071    1.70308788112745
C         2.37209557640890   -3.23218326078415    0.59445233052820
C         3.69731640366822   -2.87873145439262    0.40795920008174
C         4.34214848752218   -2.06957118432676    1.32864654970644
C         6.15633086351109   -0.65681774667100    3.40509635961776
C         6.75671928965678   -1.90889825171774    3.50391811286349
C         8.12182461836995   -2.03768696957803    3.33228575700908
C         8.90087115314990   -0.92114778371511    3.06801467469837
C         8.30976007165483    0.32653548126029    2.97323704292466
C         6.94198310863987    0.45464705478094    3.14060434334252
C         3.91243354761639    4.69996121119246    5.30510456526926
C         2.59197581482419    4.65894818217109    5.75288799806583
C         1.87382457434152    5.82411837507017    5.93353641365500
C         2.46483141874346    7.05009339485744    5.66877498186363
C         3.78099542713959    7.09911315920381    5.24500910056962
C         4.50637946765690    5.93212498353753    5.06634860238104
C         6.45080354961582    3.48148965134397    4.77048838908678
C         6.79256247281082    4.22839524616805    3.64255659503417
C         8.11602782334271    4.48069521157142    3.33230616449213
C         9.12669907885794    3.97659923308162    4.13368569473502
C         8.80076554230855    3.21801937875420    5.24513449682721
C         7.47725095519056    2.96982181499399    5.55948060300291
C         3.65138649959975    1.51308092877941    1.41261062628419
C         2.44547050372772    1.36122594190458    0.50887155100641
C         1.15305974934443    1.07106404599032    1.28603247656731
C         1.20491722952880    1.56070201128853    2.71524841506403
C         1.52769800508738    2.87932885379112    3.08755628127903
C         1.82455388007126    3.95494654849810    2.06021850126108
C         3.32309247685533    4.04172672360259    1.73544404873815
C         4.05376258439027    2.73423407030415    1.94520306742208
H         3.39274520930787   -3.32235583151202    4.44648855570921
H         3.42676269914573   -4.40536358259677    6.65490572314130
H         4.30866988563264   -3.24341348648590    8.60587105369979
H         4.99740599998154    1.39447084644116   10.50694237302517
H         4.62272281139098    3.75423145308165   10.01742860164285
H         4.50501242623111    4.55078357731119    7.69720277849523
H         5.57785897111033   -0.61684508994091   10.82658780996539
H         3.98496700197918   -1.06497900131805   10.19390311754746
H         5.32920364276053   -2.21745922899825   10.16567869336279
H         7.31507818935446   -0.48969494292172    7.52052291589142
H         7.51169109021463   -0.22588134458393    9.25737637406924
H         7.28072403304635   -1.86450076512856    8.62602291392770
H         1.78724406966483   -1.55777422607962    3.47593524865063
H         0.64423214632816   -3.03286104576491    1.84606657838288
H         1.87429503983187   -3.86423006402756   -0.12647194730761
H         4.23333766379769   -3.23343214212391   -0.46088478768086
H         5.37767168509356   -1.79786487194051    1.17468852479218
H         6.15057291701685   -2.77888105731007    3.71723835041816
H         8.58345035080196   -3.01177144028571    3.40880530653535
H         9.96818982779239   -1.02656021764652    2.93852911753231
H         8.91108967418573    1.20174880093697    2.77387474322686
H         6.47347404490138    1.42596545335004    3.08020050341247
H         2.14558535171023    3.69818716088013    5.97215389111763
H         0.85212408339502    5.77969602810743    6.28232663515955
H         1.90448859881947    7.96403931569516    5.80236198501521
H         4.25246812142352    8.05307440481615    5.05516464558402
H         5.53901836221329    5.99522537585233    4.75630459769546
H         6.01696002825607    4.62261569427559    3.00124750402205
H         8.35917360266914    5.07090473953721    2.46012135945319
H        10.16105493278092    4.17193079848754    3.89130720742077
H         9.58311865132134    2.81527960112345    5.87240394017793
H         7.24308113616415    2.37455984883443    6.42899612724606
H         4.43924978827490    0.78478360712405    1.21930997468190
H         2.63271500738481    0.54288286428676   -0.18984926870965
H         2.33962360310157    2.27553555200707   -0.08011915073180
H         0.98172879367814   -0.00696030806617    1.29839283137506
H         0.29257877314960    1.53084330451019    0.78514156043357
H         0.52795444559600    1.01784024841242    3.37557843650761
H         1.05668713236512    3.25148682755957    3.99523094041255
H         1.49177642946277    4.92055694067518    2.44736372012786
H         1.24887384758759    3.75178501014601    1.15423757174196
H         3.77440813807639    4.79569647464473    2.38592501764045
H         3.47646930242874    4.37131294260077    0.70019523854005
H         5.12447367115212    2.86297788354544    2.09520697930124

