87
CSD_code = WAYVEX | q = 0 | S = 0 | Stoichiometry = C39H46PY | MND = 13
Y         0.52390505076441    2.71652030474318    5.91367867178946
P         0.06760106879766    5.44466523903236    7.74181064824898
C         3.00479777625291    4.35273906220015    4.46990032231093
C         2.26858492763334    3.50188393161528    3.63739035354115
C         2.27962604830235    2.18682444130230    4.20180264343380
C         3.07652487711413    2.26549492542262    5.41172293756304
C         3.51213706457885    3.60109434425112    5.55169698167302
C         3.24080600687991    5.80592798220875    4.18773672787229
C         1.69871808045435    3.87350726809685    2.30066349656945
C         2.10736735473483    0.94399176162578    3.35490517664575
C         3.64108468298525    1.09467653835023    6.17964652758807
C         4.46493503746614    4.08769306308724    6.60492978798939
C        -2.32302188904861    1.87125196667488    6.60885879820993
C        -1.67094921212551    1.59271354117884    7.83123496684130
C        -0.57795521499919    0.74442150899161    7.57038832355781
C        -0.53641534994841    0.47427481022566    6.16202482603256
C        -1.64044110017369    1.19481831261709    5.57647278487258
C        -3.56101251925531    2.69342882727961    6.40346068639104
C        -2.11395156088251    1.99631431822941    9.20552665714805
C         0.27088800326911    0.06108471622850    8.60641630314070
C         0.04507614890087   -0.79368528559524    5.58024460535254
C        -2.13491142517288    1.03976334156144    4.16145460721201
C        -0.53925685286856    4.60352467493789    5.17781901461733
C        -0.48666625814554    5.71843654474850    6.03433235619367
C        -0.93756493279665    6.99334904606276    5.69422235170740
C        -1.47316408202138    7.20619231924573    4.44136361445925
C        -1.57156229127709    6.13638997518183    3.56255084857096
C        -1.11797039395380    4.87796582468461    3.92473445140206
C         0.94292138718615    6.96787063645194    8.21166259870588
C         0.58042288048277    7.82086135604500    9.24620200393469
C         1.36165987657398    8.93027733706448    9.52088803257997
C         2.49731888629171    9.19107164640934    8.77158735282835
C         2.85727767785256    8.34259140920034    7.73520078746268
C         2.08301500548949    7.23364462912340    7.45648234481965
C        -1.41918594812106    5.40305595130662    8.77399500136666
C        -1.26634794432587    5.22430944262838   10.14701113458620
C        -2.37435403282622    5.22951208063182   10.97283213398770
C        -3.63867666103314    5.40874757452606   10.43250594953698
C        -3.79267581466591    5.58428291820651    9.06725779452376
C        -2.68603374197910    5.58463613794130    8.23516859851191
C         1.03382817718339    3.98608473765268    7.93883404155719
H        -0.86142470414444    7.80303902799847    6.41238290618318
H        -1.81920945738060    8.18832004415892    4.15198015120682
H        -2.00510392912399    6.29127583970687    2.58347105954437
H        -1.22528408794772    4.07452668712711    3.20134104926458
H        -0.31091398019287    7.62617668287901    9.82580684395913
H         1.07945478976758    9.59674278407549   10.32281606070634
H         3.10041148382344   10.05899663150790    8.99271950951757
H         3.73860157895227    8.54961015358230    7.14613003671022
H         2.33597623809863    6.56285353349810    6.64597263748937
H        -0.27596186702224    5.08491668382249   10.56119316141737
H        -2.25544080697026    5.09155877620473   12.03742852511966
H        -4.50438733104689    5.40838995127865   11.07788954091343
H        -4.77878445466863    5.71932884589109    8.64766150463756
H        -2.80165640903292    5.71913622647222    7.16961002246275
H         3.65793054763765    5.93261116833398    3.18802484176609
H         2.30695801806386    6.37401138291142    4.22665668520006
H         3.94384509591182    6.23497913928398    4.89816475444997
H         2.48722289418774    3.88506059127429    1.54367853213000
H         1.25126309473736    4.86651646052574    2.32887193497865
H         0.94100049095596    3.15935107004312    1.98200678212364
H         2.23167795617062    0.03674660704715    3.94096334420089
H         2.87182992902314    0.93671219456173    2.57295349241656
H         1.13587164359645    0.90926545702724    2.85729025118721
H         3.65351478720100    1.28266609751569    7.25560942182361
H         4.67271518699771    0.90826517465189    5.86903238868294
H         3.07266501230985    0.18292837157960    5.99935998831734
H         5.49219441655769    4.04143673485139    6.23513702026860
H         4.41114678300473    3.46861592049683    7.49978398454876
H         4.26618476757295    5.12051950329770    6.89096686386446
H        -4.37082311098338    2.07345006298189    6.01470768893817
H        -3.38443237434050    3.50038887617027    5.68828073082105
H        -3.89535921430440    3.13411914248727    7.33912472371583
H        -2.87106693071567    2.77521052325159    9.16684687224168
H        -2.54004632339227    1.13928426466566    9.73185787907492
H        -1.28047870622592    2.36595613650136    9.80475127790867
H        -0.20026324121070   -0.87082349020444    8.93009526946591
H         1.25879778669425   -0.18471336279126    8.21594282713244
H         0.39626481891555    0.68802828098873    9.48891050826981
H         1.05711624263818   -0.98833423883778    5.93551773025132
H         0.05061075891545   -0.77169472319696    4.49257545819903
H        -0.57270997965548   -1.64258303294432    5.88808299917294
H        -2.78022502122581    0.16051693029775    4.08057125142757
H        -1.31246630821182    0.91409771465040    3.45427265488531
H        -2.71944179964649    1.90803624848575    3.86025125308102
H         2.08341159800542    4.30252728561616    7.97773153688819
H         0.76853532405243    3.54536647881799    8.90655879804914

