107
CSD_code = WAZDIN | q = 1 | S = 0 | Stoichiometry = C54H45CuN5P2(1+) | MND = 4
C        17.89264051310010   12.69491924839019   15.40164948167915
C        16.31978374546158   14.24610075922030   15.05015584438084
H        15.25073030492181   14.00915788711989   15.07106516186498
C        16.88319298449830   14.41747067018465   16.50735054872304
H        16.07691863682836   14.31291372876358   17.24177711509391
C        16.50531239136849   15.48210197357630   14.20288216730533
C        17.76846586390614   15.86860947680289   13.76799343616950
H        18.63415685284919   15.26640077757513   13.99440899997710
C        17.88670603617117   17.04730540566901   13.05139796196630
H        18.85512571010285   17.38087437107054   12.70997928191215
C        16.74387477762120   17.78542738736310   12.78481602604192
H        16.79328597597920   18.71022932295668   12.23272154404243
C        15.52991273840865   17.30078662572515   13.24739111031979
H        14.60602238056482   17.83310525506967   13.06357714390689
C        17.59245900769238   15.73155285628170   16.72434595110297
C        16.88165675602484   16.91825079783156   16.86631772829082
H        15.80328984414609   16.91304192741319   16.84421420098280
C        17.59408922343687   18.09393324176670   17.02531657181250
H        17.07734493433138   19.03507335898868   17.13736774963344
C        18.98044249972014   18.04214417575000   17.04367515229608
H        19.57026456594262   18.93567505170312   17.16823983365274
C        19.59121715811173   16.80738121446254   16.90713545177849
H        20.66812143924054   16.70446442466858   16.92294809635720
C        18.77903249599985   11.57875681765448   15.09233848357735
C        19.75873269713083   11.11048912461517   15.96495067764494
H        19.89734568865003   11.56558772828870   16.93239547276138
C        20.55048763034496   10.04754528783347   15.56453166488595
H        21.31684650311457    9.66109604288821   16.21871786424194
C        20.34401536690232    9.48896997852473   14.31048273551543
H        20.93999143522193    8.66021789605094   13.96477357232494
C        19.34838988994877   10.01980281438173   13.50556317663996
H        19.15362297921821    9.62528029866180   12.51781510930549
C        19.43617174891404   14.26932095474622   11.24858610093418
C        19.56029436186729   15.39459963333309   10.44191084688386
H        18.87950962349206   15.54705012523268    9.61637468997221
C        20.56209530928192   16.31494972652773   10.69864576572020
H        20.66167291650095   17.18623918142241   10.06816816808439
C        21.43675119163296   16.12241161391207   11.75618140305024
H        22.21437086518056   16.84539052710090   11.95150535423554
C        21.31544813315050   15.00136312869241   12.56312275471556
H        21.99768312082116   14.85101202029377   13.38692135378209
C        20.31798329475298   14.07899402012111   12.31028541335069
H        20.20793717527603   13.19776220557874   12.93150638065535
C        19.09463880474322   11.76557755500221    9.99250260472923
C        20.21873439969411   12.09271626902051    9.24204617506123
H        20.60041870044377   13.10367021941856    9.24725616072606
C        20.84635194670936   11.11734093437088    8.48729912310795
H        21.71891716192838   11.37191049974988    7.90457319760474
C        20.35925347022064    9.81988386752588    8.47287376959627
H        20.85313658628537    9.06605796357789    7.87887598288042
C        19.24062280486593    9.49002629699187    9.22170690180594
H        18.85562928919150    8.48091630343620    9.21282027267064
C        18.61597262972931   10.45831470164680    9.98500754803216
H        17.74258055608539   10.21735360895568   10.57828765991816
C        17.00449428985861   13.69544038728160    9.83495597848867
C        16.67800398072424   13.09115363672670    8.62640437048503
H        17.19538911803917   12.19603338002087    8.31096807595210
C        15.68924749214929   13.64112152817218    7.82866726104314
H        15.44185835547865   13.17439513989813    6.88670451648561
C        15.01833848619615   14.78325332813337    8.23301023780239
H        14.24687939645366   15.20560609846069    7.60730056815227
C        15.33705234653330   15.38437570549180    9.44104886580842
H        14.81556152589400   16.27498997117193    9.75829356009746
C        16.32045290247103   14.83989157246432   10.24299433164861
H        16.57457484636720   15.29938266815497   11.18916122098994
C        14.42576633681899    9.94487279499836   13.60760747297375
C        14.76040589020785   10.27709898782198   14.91706175194137
H        15.47651504234223   11.07108697514018   15.08854537315987
C        14.18825754355981    9.59748120771926   15.97630758512657
H        14.44871533159386    9.85860100185860   16.99148650118302
C        13.28139845076780    8.57889050113983   15.73224687366684
H        12.83416869201991    8.04496934487190   16.55686338536729
C        12.94986662270981    8.24153056364124   14.42952248464879
H        12.24537108696193    7.44507436995610   14.24193093997441
C        13.51625309147844    8.92046112435655   13.36595982117992
H        13.26077829441528    8.64556577271560   12.35250640522740
C        15.20709463463832    9.84953698806818   10.85178336573371
C        15.69007707626164    8.54927351008536   10.99552533608768
H        15.94243782325250    8.18092621986077   11.98184556645491
C        15.83907105956482    7.73924227801474    9.88545034229745
H        16.19962869556521    6.72776068526792   10.00203747814745
C        15.52986172114023    8.22560354504165    8.62445075043212
H        15.64928830077622    7.59269323981087    7.75823877725560
C        15.07204847843445    9.52470273491677    8.47551931035252
H        14.83652373832187    9.90511208228808    7.49282182721327
C        14.91509730011498   10.33949252932425    9.58199331253679
H        14.56606835944326   11.35656210808714    9.46749507463790
C        13.84005177777106   12.11535668882516   11.92169065532759
C        12.60567361143879   11.70057302728610   11.42959312848182
H        12.42659431869534   10.65539922443343   11.22204139774307
C        11.61255591907819   12.63392959393869   11.20056860115134
H        10.65619260798075   12.31448088412794   10.81416498918026
C        11.83679937280720   13.97594485515818   11.47079438061703
H        11.05244204832176   14.69656086022072   11.29487356092167
C        13.06102122486554   14.38920991646632   11.96779305278597
H        13.24089782892696   15.42897999721283   12.19351635625052
C        14.06142957814295   13.46053696423918   12.18838216722753
H        15.02619843204748   13.76859528842236   12.56936161664693
Cu       17.10554894602486   12.06956476930683   12.80095568168095
N        17.06126290127786   13.12835604888551   14.51406026015718
N        17.79806894496289   13.29133250337210   16.61504174473696
H        18.60489099793269   13.42336914854689   17.20584695797529
N        15.41151743484665   16.18152183318843   13.94027104531952
N        18.91809518754153   15.67923167430821   16.74975237494387
N        18.58894589337756   11.03211565478325   13.88512840035121
P        18.18349123887003   12.97047237002237   11.01083038025632
P        15.19032230695958   10.95225943249579   12.29427158203279

