68
CSD_code = WAZDEI | q = 0 | S = 0 | Stoichiometry = C32H25CoN8O2 | MND = 6
Co        1.09830330767794    2.50994875798842   11.28286063122298
O         0.61892989226752    4.28066657131303   11.65854860849717
O         1.92704050773505    3.05084645012675    9.66946346542417
N         2.53779791385044    4.10749524620271   12.86556580226696
N         2.48849832680434    2.88595876085928   12.35738918416904
N         1.90988832046885    0.78671505120478   11.13738405640875
N         3.63241995396128   -0.43971672035811   11.82029518576716
H         4.47713271069537   -0.69774902851765   12.30131324549954
N        -0.12113385415093    2.45939034223147    8.86807356416630
N        -0.31659283753486    2.17941072691051   10.16875809668803
N        -0.06292869370990    1.87587871240891   12.61705562870882
N        -2.13369487390577    1.01952475309527   12.96513318553144
C         1.48202843347586    4.79459763340419   12.43268274164885
C         3.38116884264878    1.95715552130588   12.57539947029688
C         4.59024228234521    2.11360972626127   13.43872171817352
H         4.62137515803451    3.13722941164787   13.80220496064024
H         5.49943379087714    1.90594748359175   12.87527239075697
H         4.54615737683916    1.43390103536624   14.29016708481107
C         1.09479803523970    2.92530270453728    8.69990664767895
C        -1.41083749765029    1.70951601540690   10.67499284857086
C        -2.64813396901479    1.40163678311520    9.90897882042208
H        -2.47962919550837    1.58629401133784    8.85125722288060
H        -3.46307020130778    2.02647658053937   10.26963265904391
H        -2.93318193180828    0.36462836045045   10.07670232197385
C         1.32982258348096    6.18505806205540   12.87948259821607
C         0.24487275176392    6.93533402562707   12.42949667890151
H        -0.46329472498733    6.47417147702837   11.75805504041379
C         0.09081821929491    8.24423480033882   12.84355552056652
H        -0.75010472970289    8.82493360790298   12.49422509519758
C         1.01429789673592    8.81214628594606   13.70722820091106
H         0.89233337813950    9.83581160063976   14.02995888392913
C         2.09442477999456    8.06851109319838   14.15826521282700
H         2.81109707261382    8.51466129205497   14.83208277407573
C         2.25595510434013    6.75920575491275   13.74838706943430
H         3.08857838187732    6.16491262530220   14.08842684621925
C         3.01882553289927    0.76997412724705   11.87789620195764
C         1.78964596336658   -0.45053112672308   10.56613604483531
C         0.83992423845970   -0.97723924998584    9.69671962879277
H         0.01417318292043   -0.37733880331128    9.35259109815400
C         1.00464830044961   -2.28504551033418    9.28976941242398
H         0.28478147889072   -2.72220453665969    8.61501792675778
C         2.07901156834338   -3.06270348088162    9.72496093678500
H         2.16484924096247   -4.08170885959292    9.38033547566523
C         3.03599126711690   -2.55601130964341   10.58339039564414
H         3.86942175114586   -3.15441822685988   10.91755723446152
C         2.87956074374771   -1.24407507110645   10.99613854190216
C         1.51663856435985    3.30244016182928    7.34200080752404
C         2.79366993809577    3.81818647839998    7.13511015334568
H         3.45153528877858    3.93283130337956    7.98344101139541
C         3.19898257298008    4.17742777623059    5.86382117837996
H         4.18975340069147    4.57863350110693    5.70665715400241
C         2.33523984477430    4.02503918812486    4.79121008228252
H         2.65304446677299    4.30676358048738    3.79782547023944
C         1.06246757721032    3.51282942381404    4.99269548583472
H         0.39052648419854    3.39692841612145    4.15478703797857
C         0.65081535307183    3.15200003838784    6.26105956728841
H        -0.33554591145328    2.75458275890701    6.43803680071349
C        -1.27456474886534    1.50904436984932   12.09105252484926
C        -0.16131025695332    1.60954609485889   13.94515641507899
C         0.71665612752001    1.77817532494987   15.01175201810476
H         1.69568074989854    2.21090753928101   14.86739320535435
C         0.28405654681669    1.39416103422267   16.26143169537402
H         0.94180682067703    1.51681059521659   17.11050870494185
C        -0.99049230776148    0.85214602276796   16.46633004230396
H        -1.27944156836628    0.56715386969097   17.46788824133633
C        -1.87711948427616    0.68432135186426   15.42781503999470
H        -2.86338314803474    0.27510746923280   15.58123785628262
C        -1.46866209031943    1.06592023369217   14.15205314807330

