52
CSD_code = WAZFOU | q = 1 | S = 0 | Stoichiometry = C22H19N8NiS2(1+) | MND = 6
Ni        2.05608891436612    3.32231404811709    3.29901429821343
S         0.77484272537488    3.44587078940028    5.30508186083474
S         3.73060417993450    5.31698697100731    3.83574544235334
N         2.83025354083295    3.47097493797119    1.28307317019847
N         0.78313992607482    4.41729743133489    2.62078241185177
N        -0.27432868590639    4.81036939325961    3.28148065583813
N        -1.48087693902643    4.80172318640221    5.22491259690928
H        -2.15892449555306    5.41204275036778    4.80157094360479
H        -1.56884485293276    4.55151228141931    6.19436167802165
N         1.39037222279187    1.16381550829730    2.95567963941274
N         3.36150595792982    2.36800290759860    4.28451719473801
N         4.35607986736620    2.98896186687102    4.94102816830457
H         4.90361051490389    2.43505036924616    5.60213306054553
N         5.61008924209878    4.81025626575234    5.58291956095404
H         6.11790663615146    4.25538744930737    6.25141184336389
H         5.79262200832366    5.79895903498725    5.54419378105449
C         3.89928424947415    2.95502801705625    0.64025337738155
C         4.61497689428801    1.87903468928627    1.20447655502362
H         4.26100432796679    1.46770911147904    2.13588599676613
C         5.71007568035664    1.35742356557195    0.57349795316853
H         6.24592775303287    0.53043748809536    1.01490609239728
C         6.14805477247043    1.88245232900101   -0.65226370043358
H         7.01801694000330    1.46073364977146   -1.13079785998779
C         5.46542419304674    2.91238232023482   -1.23887175152217
H         5.78249176955044    3.31486003188637   -2.18925858374031
C         4.32855185701003    3.46589666520113   -0.61994734289238
C         3.58184733772706    4.51078391129423   -1.20554640494790
H         3.89197097489123    4.91291084476944   -2.15852522075271
C         2.47874944143131    4.98749319478491   -0.56131973892186
H         1.87477533704643    5.77669730963304   -0.97862518464051
C         2.13115373014818    4.44604785823116    0.69675878290677
C         1.00022123847621    4.91567064847438    1.43695950436751
H         0.32573535079121    5.66491002676613    1.04091184963682
C        -0.40460765715556    4.42066438888242    4.53196658106439
C         0.36260899251605    0.59261316518412    2.30127663656942
C        -0.38896916475406    1.36430448244541    1.38945177437427
H        -0.10364913646606    2.39595437886979    1.24650013335247
C        -1.44092989514502    0.81048671280161    0.71652160307077
H        -2.01432955926163    1.40539555335254    0.02215765412571
C        -1.79059748774874   -0.53608573640429    0.91852703192430
H        -2.62745118729872   -0.95148674446576    0.37874524728545
C        -1.07835560992706   -1.31422240425883    1.78923736021692
H        -1.33993974360139   -2.34977399648100    1.94764702413462
C         0.01255340444035   -0.77615640196201    2.49915337411836
C         0.78736649071735   -1.53092213761271    3.40367339845754
H         0.54491527091782   -2.56961168994537    3.57241059029046
C         1.83291478631686   -0.93586505392445    4.05149265577011
H         2.44428350576808   -1.48193192317863    4.75244586761181
C         2.10393553054538    0.42723403784081    3.80245792217361
C         3.17979745701720    1.10674739628966    4.48289416116330
H         3.81242149013076    0.54794928465153    5.17028219470792
C         4.60102990254687    4.32960983503891    4.84075815957977

