63
CSD_code = WAZGOV | q = 0 | S = 0 | Stoichiometry = C26H22Cl2N6O6Zn | MND = 4
Zn       -0.78697005809137   -3.02588487881729    6.55743622635870
Cl        1.23272883694499   -3.84350738573164    6.22769727321423
O         2.02948111840415    0.36728130456188    2.99453237623389
O         0.85965702414183    0.06113532339431   -1.56349555859573
O         4.53443288097760    1.28777490126407    0.00400769542898
H         5.44577489957817    1.54729046382441    0.19133289493981
N        -1.08636110267408   -1.68820402952498    4.90525479172142
N         0.92510082617080    0.15839374797991    1.04567346367954
H         0.18060365810113   -0.20854135932829    0.45918700920243
N         2.00751123478375    0.56561958865952    0.28089420702055
H         2.84636000788765    0.79982072450646    0.79908185693364
C        -2.31741509229369   -1.46336092527753    4.45645999332200
H        -3.11801197485774   -1.88759288672118    5.04629310616862
C        -2.56574175669492   -0.73676355124692    3.30361933927883
H        -3.58031968415596   -0.57160442644834    2.97805792060848
C        -1.49595678588602   -0.23101200992366    2.58405846809260
H        -1.66463311124496    0.35290816534766    1.69117691336444
C        -0.05731817128538   -1.19955671252093    4.22856114980547
H         0.92984350452926   -1.40241548450670    4.62077064231486
C        -0.20651094251693   -0.46996103516610    3.05256780004496
C         1.02462918666568    0.04813790834103    2.38706816901748
C         1.90626208916194    0.45266340876883   -1.06423588828691
C         3.09158460617369    0.84085405304202   -1.86396102218231
C         4.33443298482772    1.22849785683967   -1.34202171487472
C         5.36858192175453    1.55144744195624   -2.21408518698767
H         6.32582851968757    1.84694503004471   -1.80415638264967
C         5.19057542979246    1.49878391825006   -3.58338885735782
H         6.01004860705584    1.75506634511597   -4.23743054527729
C         3.96638673041818    1.11717930765875   -4.10735940033406
H         3.81990431196885    1.07262788615822   -5.17488616678802
C         2.93654075445834    0.79251909701645   -3.24957701522908
H         1.97190015066994    0.48728853026723   -3.62571212734229
Cl       -2.80839522077700   -3.83831636129381    6.89011001752152
O        -3.59778248337484    0.37576487571364   10.11671415523128
O        -2.43528399613950    0.06401300986994   14.67619654697040
O        -6.10629407560187    1.29070186138338   13.09996420968342
H        -7.01732792226513    1.54960780511355   12.91035396478479
N        -0.48506555393223   -1.68454381932705    8.20640555788566
N        -2.49499836038704    0.16355627903527   12.06598935878911
H        -1.75144039071422   -0.20463658612393   12.65279323697168
N        -3.57845042202241    0.57058164295758   12.82942291633752
H        -4.41620313808306    0.80522635476016   12.30960413836756
C         0.74634197576117   -1.46082050321468    8.65481393840151
H         1.54634709892101   -1.88607132320383    8.06491734370907
C         0.99575125395405   -0.73409950417340    9.80734918227212
H         2.01060601975543   -0.56992063195997   10.13254923315305
C        -0.07330263045780   -0.22704602729032   10.52711057089973
H         0.09614106347482    0.35663212747104   11.42000944992387
C        -1.51337035081119   -1.19438417555293    8.88311710981057
H        -2.50086340784249   -1.39616956759025    8.49118404854807
C        -1.36308579359276   -0.46463904119754   10.05888391368157
C        -2.59367807773011    0.05461538885899   10.72438652486839
C        -3.48057320788138    0.45587379850345   14.17461061612707
C        -4.66850801261337    0.84212639471634   14.97149548373525
C        -5.91023962466600    1.22918856086860   14.44646739395643
C        -6.94742801266981    1.54936058974120   15.31594011243624
H        -7.90375042091795    1.84451604481356   14.90358507728587
C        -6.77352218483086    1.49457898918960   16.68567747702211
H        -7.59531008802997    1.74868299235762   17.33766034736843
C        -5.55040506891140    1.11380091808184   17.21270026156141
H        -5.40717845075887    1.06751211964385   18.28059689275599
C        -4.51758158738357    0.79179419769012   16.35749882996787
H        -3.55377953439840    0.48688327303517   16.73607065878245

