45
CSD_code = WAZLOY | q = 0 | S = 0 | Stoichiometry = C15H27MoNO | MND = 8
Mo        1.42766752747826    4.14693893737380    0.25293532135026
O        -0.61754266001170    4.59650733711791    2.27629642554286
N         0.28763784283756    4.42756608340057    1.51844213031729
C         2.36696806863107    3.66853529030421   -1.91433426767054
C         1.53591332607451    2.58412766142507   -1.57532773415619
C         0.21646463601496    3.05938070229380   -1.44607882904588
C         0.22809375969552    4.45179893805041   -1.75153602213615
C         1.55420127661894    4.80897238457560   -2.06069037356552
C         2.55209441316002    2.63824836157911    1.33845346757385
C         1.95196625438237    1.69115386754513    2.38130386672482
C         2.94365761038104    0.55592796309900    2.68186645836664
C         1.66231469245188    2.43516016666911    3.68694342253225
C         0.65706048132683    1.07999590389936    1.83561263104044
C         2.55901008626572    5.96561927733502    0.61541618185534
C         1.95907562658985    7.26922561562103    1.15003641750006
C         2.95589314787318    8.42100948522784    0.94470482038533
C         1.65791360529995    7.15406823966244    2.64612673475471
C         0.67028031351085    7.59393052376443    0.38728298952163
H         3.41360232957849    3.60092970066927   -2.18488813232224
H         1.83628758967407    1.54570244068223   -1.53266545786266
H        -0.67387049109653    2.44901911081949   -1.34032091653938
H        -0.65192405176242    5.06523223448826   -1.91096068105928
H         1.87189532960463    5.76559404683486   -2.45337273560288
H         3.32544839355222    3.24222888870018    1.85688359916502
H         3.10483511312247    2.01143232962042    0.62217017692161
H         3.31619900388961    5.63134640875257    1.35464351122415
H         3.12960587332521    6.22588066682174   -0.28913776663106
H         2.54614743424176   -0.10448652654565    3.44957396904239
H         3.89063011439292    0.95841692022876    3.03677980712148
H         3.13590291365443   -0.03787494795067    1.78986494773451
H         2.58270989677665    2.83238410934038    4.11226124517236
H         0.97610552903528    3.26119404592915    3.52349759385441
H         1.21433482449544    1.76151162047917    4.41406573045801
H         0.84244850901316    0.56734776686309    0.89288495492819
H        -0.08914685890485    1.85732143524475    1.67560799671449
H         0.25379611868572    0.35672828476828    2.54118178689269
H         2.55922902928736    9.34671211661667    1.35612883781999
H         3.89930757524363    8.20453208853075    1.44250830493422
H         3.15463340492333    8.57807928988102   -0.11410313522974
H         2.57365120868160    6.97457406361131    3.20734447445532
H         0.96858574904806    6.33855470184082    2.84536153847701
H         1.20886395088735    8.07442235853710    3.01289747633378
H         0.86220748576707    7.65313289696903   -0.68300817541596
H        -0.08064052420046    6.82652434453465    0.57124984837750
H         0.26968454042964    8.55149286473445    0.71319756019918

