50
CSD_code = WAZQAS | q = 0 | S = 0 | Stoichiometry = C22H16Br2N3O6V | MND = 6
V         3.55744559607999    2.37496624138005    4.04617729370179
Br        0.33097639942655    2.09419774135733    1.02647926300891
Br       -1.94277366836242   -2.35275845431570    3.74858195301079
N         2.92874549396569    1.46901739115140    5.71815514696920
N         3.70821628603404    1.64240881610233    6.77450271687534
N         3.90170119246728    4.90608792867478    3.25074330648476
O         1.91577188949948    2.20579046214644    3.51267495091694
O         4.78672983217729    2.97964119424849    5.32937749357192
O         8.57322862722875    3.46396192527034   10.41443867988698
O         2.58564738300785    4.33528503512971    4.95180792085239
O         4.09778673916510    3.61320180927049    2.99014067779008
O         4.21884663462188    1.08848255082904    3.58212965347699
C         1.07656153434508    0.34331752750352    4.69826966005555
C         1.11213892923408    1.19827346410212    3.56385348514226
C         0.21781299526763    0.93525327340470    2.51170853361280
C        -0.67941984732680   -0.10759028578246    2.54727983251323
H        -1.34795133764849   -0.28736943086963    1.71960626741954
C        -0.70156189870011   -0.91882341333733    3.67813664186367
C         0.14980053178572   -0.70499970350537    4.74052985201644
H         0.11630442764664   -1.35123623315422    5.60453337267796
C         1.97195606547913    0.60287453812330    5.78315724934559
H         1.85377507971303    0.03794133003298    6.70831557667512
C         4.71018390161305    2.44691236311880    6.48463569757146
C         5.72435044028994    2.72107725343895    7.50300136291995
C         6.81182316360504    3.53480961205869    7.19365694175016
H         6.88842089150647    3.94667071488025    6.19753996046407
C         7.78455967137487    3.80796565830898    8.13462370728764
H         8.61634384266000    4.43875187089004    7.86342961938357
C         7.68322470953701    3.26547787987891    9.41482666897388
C         6.58982281296793    2.44710672907041    9.72703036041271
H         6.53285638204879    2.03653355510039   10.72264048592261
C         5.62595464162467    2.17618370174774    8.78668376495730
H         4.78452685729465    1.54420801371986    9.01882685426414
C         9.70802061894978    4.26292396682390   10.17090716393574
H        10.33162598254015    3.84197844664772    9.37646368555403
H        10.26881760243240    4.26812764538894   11.10399840021858
H         9.42827003012565    5.28866897351160    9.91155970025804
C         2.87499684650335    6.66992705552248    4.54897943266143
C         2.93417909995601    7.64144526549732    3.55154243650503
H         3.12348429788889    7.36619667736962    2.52443023506160
C         2.70471650762532    8.96804296436400    3.86860327778952
H         2.74385459648436    9.71769756106697    3.09271759007759
C         2.41997688096319    9.33648470276402    5.17403379603533
H         2.24450959643152   10.37428065379940    5.41402237885818
C         2.34987018543779    8.37288098997225    6.16695996484228
H         2.11908241241327    8.65683604247443    7.18244088354146
C         2.56996875383600    7.04426352672402    5.85621482581293
H         2.51446370783646    6.27803008486843    6.61500367354948
C         3.09442694266158    5.23076685717123    4.27917410544623
H         4.42032973828710    5.56442752606111    2.67575349807814

