49
CSD_code = WAZRUN | q = 0 | S = 0 | Stoichiometry = C22H17BrN3O5V | MND = 6
V         8.99200500515214   14.29169764679133    4.05636403221610
Br        3.61467346640061   19.18749539563138    4.20579755648880
N         8.47093461016090   15.16755987275222    5.77140867955245
N         9.27301386498566   14.93194270575764    6.79987050828659
N         9.27388726124987   11.73839483693893    3.28971076400754
O         7.37465729293770   14.58399616508562    3.56237251864588
O        10.23742289009025   13.57097357669183    5.29861072163866
O         7.95330820952461   12.36056963061785    4.97304552212143
O         9.46900869343465   13.02467892863156    2.97901950881377
O         9.75289000439648   15.53496706584535    3.62523788691747
C         6.62105546352072   16.39232907838071    4.85611458499728
C         6.57424723308519   15.59435628976398    3.67790926683907
C         5.62707272129398   15.90426377804972    2.68685448848765
H         5.59946640632342   15.29481349845537    1.79559932963115
C         4.76413078964819   16.96535465106611    2.84047146338844
H         4.04554875306749   17.20210967364514    2.07063923523601
C         4.81957523290906   17.73266521603474    4.00034260652711
C         5.72297307850507   17.45623994155889    5.00086463655696
H         5.75256143437866   18.06141215952460    5.89479717153242
C         7.55130417097184   16.06683290369029    5.89108711829877
H         7.48727705337338   16.60292370255038    6.83886122383995
C        10.22113691327934   14.08411329752118    6.46394001198027
C        11.25015394939985   13.73405520546064    7.44959978711473
C        12.28975340325215   12.87888993957553    7.08711084811625
H        12.32119357654831   12.49378199567222    6.07789735373070
C        13.26569158539018   12.54480982624037    8.00415209005054
H        14.07085818742500   11.88501343330466    7.71385964816058
C        13.22983476184898   13.05164722064240    9.29908997825442
C        12.18775086775545   13.90452525873408    9.65427961079016
H        12.15232888681900   14.30558871541472   10.65703252097732
C        11.20796197555906   14.24693110093746    8.74557054143038
H        10.40241400187797   14.91082797917851    9.01455036018685
C        14.27740234512515   12.67347861025425   10.29904080231623
H        13.93837668376156   11.81807403472737   10.88456591963189
H        14.47053813391037   13.49337343239463   10.98674381006921
H        15.20591052643909   12.39724502450293    9.80557799670724
C         8.31531062084150   10.01927154845172    4.69304411129429
C         8.03339336170696    9.70779959088805    6.02163012254660
H         7.96286060035416   10.51269599086055    6.73789691873634
C         7.85499079829881    8.39222227011353    6.40593569604721
H         7.64241961632315    8.15724358820687    7.43784553705935
C         7.94412000863207    7.37840065775936    5.46590585054263
H         7.80104390875232    6.35055348230128    5.76349941709192
C         8.20772783576571    7.68336037323698    4.13988627002674
H         8.26319761119052    6.89377291446584    3.40558631759580
C         8.39597580904358    8.99696391333102    3.74969817751761
H         8.57291643338005    9.22259019044607    2.70827051478774
C         8.49132573057103   11.44882907455065    4.34567466430038
H         9.85779823133722   11.06986461336224    2.79473629891407

