93
CSD_code = WAZRIB | q = 1 | S = 0 | Stoichiometry = C48H32CuN12(1+) | MND = 4
Cu       -0.56852662099599   26.64468529760105    5.24795493195740
N         0.81645408637422   25.13726620455272    5.22863311341915
N         2.72969916546784   24.22958017918997    5.89052016187892
H         3.43472936018393   23.86625004999127    6.51030583127917
N        -1.72756509541593   27.23846290111278    6.86014993470396
N        -3.56761690236060   26.92461649171853    8.06114005108270
H        -4.27580220285399   26.43660259638993    8.58440445390200
N        -0.47415959422510   25.61303474083641    9.24320843382411
N        -0.85778805849040   23.09742959529902    7.05502080368682
N        -2.03314664441109   25.98097893589058    3.94126316539506
N        -4.12183455332472   26.19139898104062    3.21976749455677
H        -4.95935443008957   26.63857118876003    2.88505011373133
N         0.70088263082881   28.22529741163840    4.95963283260314
N         2.34437680351068   29.25651533509961    3.88383703440677
H         2.85950381611721   29.66531880282784    3.12174559883636
N        -1.45737452072823   30.16464696684069    3.57778876621668
N        -1.44986910128764   27.66149773527343    1.34265320239030
C         1.56806123619250   24.83503999774424    6.26472625970348
C         1.49666181933702   24.71139319058092    4.11638083480165
C         1.15797898013286   24.77390843679794    2.76902197823970
H         0.22173897049273   25.21263406901675    2.46522048139129
C         2.05392127187267   24.24467270438898    1.86470818307427
H         1.82036098071072   24.26981679411070    0.81124646429856
C         3.25775342422206   23.66470003598946    2.27491559280818
H         3.92582682171612   23.26160427713656    1.52960252808644
C         3.60943870022665   23.58947619705688    3.60764684937221
H         4.53691457212996   23.13752031202273    3.92259586923561
C         2.71334047906568   24.12005414501791    4.52296590242895
C         1.23774608114856   25.17747092459414    7.63265971182905
C         2.19412340548462   25.67589743641775    8.51686390007859
H         3.23195957205955   25.73467968480343    8.22127550005549
C         1.79201133517407   26.13318597066702    9.75868107765787
H         2.50766554826795   26.51040017655744   10.47101256130584
C         0.43475954866430   26.12760612954778   10.05075435769968
H         0.05526348025312   26.53416702135196   10.97811597687818
C        -0.09136756463695   25.10943557186546    8.07896901426492
C        -1.13201666990299   24.35715751716698    7.35024224760400
C        -2.40326202871566   24.91991787421145    7.14967621295170
C        -3.42988620377626   24.08216062034917    6.72716138969790
H        -4.42799612046894   24.47082373500083    6.58004247750760
C        -3.14586108077568   22.75058956466523    6.47924859234888
H        -3.91762792794302   22.06731692441694    6.16457935497297
C        -1.83281080061772   22.32211836547891    6.61608788087776
H        -1.54763219588719   21.30515214922401    6.38519513839399
C        -2.56351726326755   26.34882594904166    7.34818720223888
C        -3.33637107793445   28.27852371268870    8.06733551300773
C        -4.00493758792814   29.33995496076425    8.65634405837767
H        -4.89428328742516   29.18798176122772    9.24782133810785
C        -3.47117740579145   30.59795023675445    8.46260537603589
H        -3.95512914612062   31.45211768704532    8.91033879159843
C        -2.31468774290861   30.79209102710126    7.70365259218953
H        -1.93245919454506   31.79444579248699    7.58512386903590
C        -1.65235848864231   29.74178376962549    7.10399446298065
H        -0.76559907988173   29.89182746530573    6.51209112226063
C        -2.17088265685303   28.46522472438917    7.29043845303429
C        -3.00637554327146   26.82305929907576    3.67262619091125
C        -2.50400763841691   24.72977686507344    3.62564332104159
C        -1.89178277522171   23.48242701393839    3.67706931436352
H        -0.88167117493117   23.38236495921117    4.03615218278376
C        -2.62554749944076   22.39495643182512    3.25220166814787
H        -2.17574270092659   21.41411635557909    3.27097766439699
C        -3.93927183845868   22.52419170665445    2.79530232480596
H        -4.47343083218282   21.64281289669226    2.47549298249900
C        -4.56668724234919   23.75229276866045    2.73934868549831
H        -5.57915511894668   23.85461045745788    2.38106204947374
C        -3.83019676765733   24.85094026721503    3.15290493933720
C        -2.87947534716983   28.25961160678479    3.83634822301022
C        -3.82154405767209   29.04231904552927    4.49554562161926
H        -4.73340191229806   28.59995892014392    4.87201370223800
C        -3.56021714360494   30.38869907135994    4.67987392443278
H        -4.27207960233145   31.03015579506506    5.17319330617470
C        -2.34221283656210   30.88790715455396    4.23983945145205
H        -2.06805189861173   31.92105369609917    4.40182493573815
C        -1.72385816058604   28.88983581307093    3.34668543260646
C        -0.83963578626121   28.19124478237574    2.39252034762073
C         0.55786651660602   28.19912263054166    2.52317550906340
C         1.31356247303331   27.74777774866027    1.44175167732207
H         2.39304962431647   27.74726240832949    1.49330322105720
C         0.66434738432333   27.26158911399623    0.32139413222952
H         1.21837400904078   26.91941687236523   -0.53757588427232
C        -0.72201550619267   27.19251047406744    0.34593377160672
H        -1.28015856516554   26.76286029857297   -0.47455951432900
C         1.17165355558911   28.57103407720781    3.78147856851428
C         1.58812694088217   28.70402849816532    5.88959912813411
C         1.57303112465924   28.62793808479447    7.27807721669217
H         0.76352362659505   28.12869495469014    7.78471676233511
C         2.61375758780373   29.22471258812625    7.95727182832593
H         2.63079688739725   29.19064650740055    9.03588662944192
C         3.64784162672744   29.88424852573290    7.28673000301321
H         4.43990552732401   30.33772021020542    7.86218569259001
C         3.67833898715349   29.97342306181417    5.90950400396622
H         4.47513966215115   30.48635742474863    5.39408741172794
C         2.63513357323312   29.37494128754394    5.21960853411403

