39
CSD_code = WAZSUO | q = 0 | S = 0 | Stoichiometry = C19H15ClN2PdS | MND = 4
Pd       -0.50951134097868   17.74731401903482    4.06964877696317
Cl       -0.20274500566469   16.76999108862609    6.03327466243899
S        -2.40728442306518   16.24392865892505    3.29189270669382
N        -0.05127942453968   19.65227946025381    2.07658417918563
N        -0.81637261153704   18.67913315565645    2.41108908316010
C         0.91141762564823   19.13893697266290    4.20553642824098
C         0.89545087003667   19.92137254986918    3.01572305031860
C         1.82971472984862   20.94650282289678    2.81444990364547
H         1.78981102621171   21.51994104510698    1.90116930017356
C         2.77442372349092   21.19425248083282    3.78425210834435
H         3.49991276243385   21.98207094609277    3.64354625324696
C         2.79965711110142   20.43256210409028    4.94868935751648
H         3.54469803974701   20.63885408377810    5.70369873826054
C         1.88015742715061   19.41211928371866    5.15582657013242
H         1.91909045079900   18.83186840710194    6.06867879538929
C        -1.83283091960530   18.33460469351388    1.53264583429839
C        -2.05834822323327   19.05092318829148    0.35055594283270
H        -1.40777666354144   19.88414983187212    0.13593877376507
C        -3.08240129510277   18.69300174840804   -0.49964697714016
H        -3.24433693494826   19.25455491642057   -1.40717223179049
C        -3.90847640930426   17.61987450163370   -0.19332355128983
H        -4.71368161282824   17.34553676147823   -0.85712346649142
C        -3.69833248830240   16.90005547640830    0.97001593961656
H        -4.33284957018997   16.06450473571944    1.22470711240909
C        -2.66700858931320   17.24580304311471    1.82587070535225
C        -1.34214305580760   14.93827435992308    2.50709877525862
H        -1.16068008337172   14.22442726508035    3.31027874870818
H        -1.93691864742859   14.48264606224983    1.71599603913957
C        -0.08563303676551   15.56616563536389    2.00390182399266
C         0.98168704301173   15.78785761020014    2.88644555392285
H         0.97380107850487   15.33293608552429    3.87567761552989
C         2.09502229101755   16.50301864809627    2.46024303807200
H         2.92255572820606   16.65775840624413    3.13780804568954
C         2.14735992584636   17.00468226090701    1.16732932365429
H         3.00383704814690   17.57774007176182    0.84632501007482
C         1.10928981165381   16.75866629227735    0.28523052598771
H         1.15545600078607   17.13326143140084   -0.72615208299386
C        -0.00332341632185   16.04448363366040    0.70012706696853
H        -0.81490894178690   15.86224626178207    0.00876252071089

