37
CSD_code = WAZTOJ | q = 0 | S = 0 | Stoichiometry = C14H10CdI2N6O4 | MND = 4
Cd        8.68304887632638   12.54785570957109    5.64127131289959
I         9.14448657043205   12.54646100904032    8.27655841870751
I        10.13708761917951   12.53515145478324    3.38193033140313
O         4.98378812594803    5.97083616022917    2.17185150992615
O         5.71882162617849    7.13196387910216    0.51786080303722
C         7.08951610587081   10.05468620306642    2.99661351540161
H         7.61036983492266   10.93536931332079    2.65804067892471
C         6.66222448146387    9.09714861297343    2.12307640545896
H         6.82038687369836    9.18577082867033    1.06031365998298
C         5.99685405264322    7.95226312930971    2.61692077139729
C         5.77387966438024    7.77867480630760    3.95666244373869
H         5.26881903013760    6.90841230063866    4.35016689124381
C         6.11025260831362    8.81701453869252    6.16668311996284
H         5.64850196474119    8.06147185338754    6.76709246328448
C         6.71087086954475    9.99609410465301    6.51036121142517
H         6.83679139157396   10.41068261360360    7.49350642439573
C         6.86097246883152    9.87614537569134    4.37131184809590
N         7.16917001734376   10.64301263862825    5.40797189063326
N         6.19867803456859    8.72734818350648    4.81035644389123
N         5.53251983416778    6.93861039645981    1.69464970878333
O         4.96754343042902   19.11888993118859    2.16590961894182
O         5.72110886355648   17.96773144834282    0.51327677497248
C         7.11238877266645   15.05598832443714    2.99366051229246
H         7.64330729235317   14.18095440186489    2.65594499408125
C         6.67861442355444   16.01022149253099    2.11967260197542
H         6.84110952702610   15.92425219047113    1.05733811594451
C         6.00055859671130   17.14811814390907    2.61243701261895
C         5.77273391499116   17.31885630154464    3.95172303785499
H         5.25872010950262   18.18418568194916    4.34450015710132
C         6.11286228759725   16.28220821359171    6.16191631007966
H         5.64331648629406   17.03348569349873    6.76162642734441
C         6.72201939218850   15.10773124857621    6.50631082674026
H         6.84892575526174   14.69352366129571    7.48949313485834
C         6.87724612914923   15.23074576060566    4.36774632310005
N         7.18838415503069   14.46544285871072    5.40465905519430
N         6.20410090540921   16.37358616593825    4.80589680292891
N         5.52831990806663   18.15760536973280    1.68958844135564

