63
CSD_code = WAZWEZ | q = 0 | S = 0 | Stoichiometry = C12H36Cl4N6O2P2Ti | MND = 6
Ti       -0.74266511251830    5.04800793315843    7.00728498603444
P         1.45430011653604    7.17714401986670    7.71530971907691
Cl        0.44513202153185    3.08076455834419    6.92611497521111
Cl       -1.45768549169456    4.52282294833361    9.13027948384849
O         0.71700762556787    5.85926115396249    7.70699037650463
N         0.71851652411210    8.22476364323749    8.76770129194362
N         3.01636841659501    6.77795765767449    8.17495230560293
N         1.68797827609989    8.03219236183280    6.31409024758435
C        -0.17662953882130    7.75931593948868    9.80927969753116
H        -0.23151365114618    6.67032331195402    9.79429969320368
H        -1.18298540882471    8.15755559161931    9.65278722665422
H         0.18964770241663    8.07993106340447   10.78924617026131
C         0.94785773930431    9.65055220642654    8.77161037953211
H         1.61364323698041    9.91984904194911    7.95730557818178
H         1.40131241263621    9.95896983564663    9.71966756001782
H         0.00233555303167   10.18713219177746    8.65275491095154
C         3.94190979894401    7.84992604648574    8.46485952846487
H         3.70329466419735    8.70542854593348    7.83850545334563
H         4.95844931467987    7.51907651762894    8.23991781281007
H         3.90332651695075    8.15451462246066    9.51670769137751
C         3.26327276418639    5.56187564035479    8.92685639388607
H         2.50738003180929    4.81926668236728    8.66943742143753
H         3.24146124721473    5.73578671116329   10.00817593225589
H         4.24581319282198    5.16992229215189    8.65461547421538
C         0.58356234702213    8.76282216690083    5.70845464866474
H        -0.20522010021559    8.92708325591155    6.43904546669445
H         0.15536333855503    8.20044561371864    4.87446543334376
H         0.95502908365614    9.72211883658446    5.33858341868077
C         2.64119225787302    7.53129852331183    5.33449557240757
H         3.37217646230018    6.89709294303147    5.83048626871373
H         3.14834250081209    8.38307220542234    4.87505056301603
H         2.13923713065240    6.94996665934492    4.55705937246713
Cl       -1.93055451410326    7.01513539187631    7.08840206561782
Cl       -0.02808586893085    5.57336396394852    4.88414197805695
O        -2.20231291690915    4.23675214761400    6.30753793902376
P        -2.93960345638085    2.91887762704300    6.29920331099233
N        -2.20381301244278    1.87123181654954    5.24683997684753
N        -4.50166961329945    3.31804467512747    5.83952504949487
N        -3.17331472155390    2.06385298134211    7.70043124015516
C        -1.30860401034505    2.33663537061687    4.20529599457806
C        -2.43318045069730    0.44544717860294    5.24295810007259
C        -5.42721675702822    2.24606781526552    5.54966134702614
C        -4.74857419021774    4.53408536982797    5.08755351541262
C        -2.06893439567225    1.33320974963787    8.30610779886833
C        -4.12656828826909    2.56474666853716    8.67998579345759
H        -1.25368304014087    3.42562771707811    4.22025886312490
H        -0.30227095911656    1.93836259724361    4.36185271522487
H        -1.67484261218023    2.01600883995078    3.22531790696211
H        -3.09901999821512    0.17618082236394    6.05722901612635
H        -2.88658019865085    0.13700949315065    4.29488121107433
H        -1.48767697697352   -0.09114764443824    5.36188965314014
H        -5.18860475031164    1.39058492662452    6.17604163815382
H        -6.44375939396134    2.57691930608933    5.77459237993641
H        -5.38864591548654    1.94143626252820    4.49782454332138
H        -3.99267696026808    5.27670850285288    5.34491457949166
H        -4.72677939719813    4.36010667857184    4.00624463718287
H        -5.73111068237737    4.92606244077293    5.35977698731707
H        -1.28010747186544    1.16897722116274    7.57555896101880
H        -1.64078805621595    1.89556727442214    9.14013792824155
H        -2.44041974747718    0.37390030477137    8.67593075704106
H        -4.85750755540473    3.19898681366705    8.18397267624934
H        -4.63376995963391    1.71297506154023    9.13937611491725
H        -3.62463510193419    3.14604190421024    9.45746426795073

