79
CSD_code = WAZZIJ | q = 0 | S = 0 | Stoichiometry = C40H32Cl2HgN4 | MND = 4
Hg        0.83291276086161    2.52401962790046    4.07598572566663
Cl       -0.17481926865378    0.48235467998102    4.17287540244542
Cl       -0.32496168065865    4.47828844027232    3.89837999049444
N         2.36975539609947    2.54765958643578    5.86959477231911
N         3.93054860603581    1.94092254796582    7.33231080452354
N         2.48661367238607    2.63504268186856    2.39672928946502
N         4.09994170702987    3.37546027756412    1.05823806415319
C         4.05163078219071    4.25834034688935    3.37842575793875
C         6.49487814382201    3.47918025589512    0.43435248702207
C         2.37164507944221    1.98782259767037    1.18855539771195
C         3.52564600101024    3.43928282784274    2.28921163998864
C         6.27663674497171    2.01021470555865    8.12810658008191
C         6.11974072390757    0.50434568721861    3.79556888026779
H         7.17985819387435    0.63662101072519    3.63395471152165
C         3.38598120377476    2.45276462261381    0.32914431706596
C         3.20551807508307    5.07345739903208    4.12699516442352
H         2.16197139447390    5.15415518034913    3.86290706453408
C         5.90432817824274    4.93745340452253    4.75547579684399
H         6.95552462185399    4.88119665714511    4.99899181758855
C         3.45570834687635    1.82552529162699    6.06310714615566
C         5.00883011543650    1.20720232287951    7.93669803849783
H         5.22070757409431    0.33061841092004    7.31579730623432
H         4.66691783491033    0.84950638923127    8.91640187797864
C         4.12227100383568    1.04535052076058    5.02365062052254
C         5.16419315169554    4.19105257180070    0.54062124277873
H         5.27008249176240    5.07041474080239    1.18445437987176
H         4.86882302747707    4.53963432765910   -0.45729128362968
C         5.40838467126765    4.19912539948561    3.69720992443288
H         6.06925312106869    3.55795044545025    3.13181603110015
C         6.63951173521934    2.13326522137240    0.73472434049316
H         5.78982887172302    1.55465216832935    1.06586913170637
C         2.11757444371403    3.19300687437232    7.05767237423220
C         3.52304405534022    1.97529181706054   -0.96597632426008
H         4.30509153329067    2.32899744692058   -1.62052474102091
C         3.09698769669158    2.81181910108492    7.99532936092397
C         8.83690248781977    3.59125023342002   -0.10947044225248
H         9.69035150801245    4.16349124156030   -0.44064294923256
C         8.97660363451774    2.24635380905825    0.19305113087195
H         9.93931530393600    1.76704597245322    0.09863759245671
C         1.11942817152485    4.09832860563841    7.40213866196188
H         0.37589663999380    4.39981517383457    6.67926086070438
C         8.58075793745552    2.06054350356435    8.82237299987932
H         9.45006005817426    1.54753563755260    9.20526554712031
C         7.60354853415209    4.20332923892475    0.01079600750808
H         7.49409317533899    5.25203425574307   -0.22578237266993
C         5.49190946406360    1.20238443951846    4.81026234796139
H         6.05966164652829    1.88786736124831    5.42284552821050
C         6.34317515506795    3.36590286352112    7.84481912784172
H         5.47713732540044    3.88503143259120    7.46171786601128
C         3.70996263895998    5.80423459307355    5.18768965442983
H         3.04575647108567    6.42864516429495    5.76537869326984
C         7.52272912422004    4.06328451047613    8.04889271572773
H         7.56239267291178    5.11940775965774    7.82727460508994
C         1.61495302842007    0.54375122809785   -0.52350272220918
H         0.93543452647403   -0.21087988801212   -0.88926481023879
C         3.09992462420422    3.30663538230140    9.29127784888946
H         3.85452291657554    3.01711409845448   10.00676575612949
C         7.40534162313665    1.36278488471844    8.61785349579388
H         7.35715974180220    0.30636847383078    8.83998787869129
C         3.39751211554863    0.17274046435556    4.21490275301216
H         2.34569859280975    0.01470871892719    4.39899629027745
C         5.39176177129034   -0.35231248479121    2.98510275559118
H         5.88417443652931   -0.89647453889657    2.19215555031098
C         8.64211304727902    3.41522461395827    8.53808824844401
H         9.55913693744317    3.96156437713292    8.69936607477704
C         1.47225915858235    1.01562655687367    0.76379534754238
H         0.70146935223213    0.65117803844256    1.42669099540778
C         1.12962495071012    4.58843857579281    8.69044608268210
H         0.37057291182537    5.29275598769571    8.99499531356942
C         7.87676451727798    1.52170341869033    0.61438449523923
H         7.97727984946747    0.47237015669505    0.84850232004007
C         4.03320770676918   -0.51647893499647    3.19789644465127
H         3.46193231709723   -1.18536269635732    2.57253763384259
C         2.09925196604899    4.19873540610045    9.61864396390844
H         2.06517176272480    4.60996555768903   10.61629769312317
C         5.05648878093305    5.73795714333777    5.50448494679462
H         5.44635938570798    6.31507925160940    6.33050307458597
C         2.61934729680908    1.01528788459143   -1.37348261104182
H         2.69099472291727    0.61453694046272   -2.37339548470783

