42
CSD_code = WAZZUV | q = 0 | S = 0 | Stoichiometry = C16H15MoN3O7 | MND = 6
Mo        1.75857045847584   14.31213955045530    2.79348121966727
N         1.74522135031944   14.48994076564279    0.60883018083151
N         1.26289688815138   13.37861471402065    0.00322673783835
N         4.98786019679668   19.39885415352920   -0.87595203739310
O         2.26049133665454   16.08063120324329    2.60302649360980
O         0.66582432653858   12.91190471941556    2.12539608485924
O         5.00030259964180   19.10216001562008   -2.05271647060664
O         5.52033720828310   20.38184946433204   -0.40631234951118
O        -0.52750466145702   15.52300932671472    1.92610665434079
O         0.97699907209372   14.42085510223169    4.23274197696415
O         3.20835083866984   13.53106045830689    2.81219258903644
C         2.91305916541168   16.84240360351224    1.77572505706288
C         3.55337570767563   18.00853882597961    2.24469480026981
H         3.49335463446916   18.21976709325124    3.30245467543058
C         4.23039003481742   18.83723554098863    1.38676869632524
H         4.72397096894471   19.73122414232991    1.73693281488428
C         4.28643530580349   18.52495380291125    0.02378726069040
C         3.67745379992114   17.38584314622855   -0.47053659623125
H         3.74790840864632   17.16872759631117   -1.52668034661481
C         2.98689748649613   16.52646759306436    0.38478928289166
C         2.37920028090501   15.33733594201768   -0.13214494791869
H         2.48230047369042   15.12115952868449   -1.19581786916684
C         0.75682681116433   12.55511372589015    0.88602139672937
C         0.30554025869591   11.22869595471387    0.45037156945224
C         0.00272802026663   11.03828324603585   -0.90027154227940
H         0.10437286453993   11.87795535818818   -1.56887564704823
C        -0.41861838208974    9.80824591701837   -1.35974825164103
H        -0.65695181266067    9.67060713598242   -2.40320844676936
C        -0.52917462721354    8.74918054131783   -0.47108276197430
H        -0.85635530368959    7.78126493038568   -0.82044065210201
C        -0.21156565669810    8.92770712161369    0.86292717454206
H        -0.28830529533173    8.09178582699539    1.54294099722896
C         0.20945780496957   10.15821528895198    1.35555932566303
C         0.56725447422330   10.29665533580501    2.80062425703389
H         0.59716405621092    9.32051039931635    3.27946511912829
H        -0.16553395417337   10.91868198304418    3.31843708039424
H         1.53970725169951   10.78383704229367    2.92216987391931
C        -1.51879429364676   15.55176978527652    2.94811461271619
H        -2.28751107915908   14.79540267428077    2.76641516609406
H        -1.97849494578506   16.54271902413806    3.00598135213636
H        -0.99560920550906   15.32582501905432    3.87750678247679
H        -0.96773286676174   15.65956740090673    1.07709868703780

