53
CSD_code = WEBDUF | q = 0 | S = 0 | Stoichiometry = C27H17ClF4IrN3 | MND = 6
Ir        2.98402129685611    1.13709920615486    3.91891584328121
Cl        4.20348829394943    2.74676392833670    2.56031784586019
N         2.81084410019766    0.11952226748714    2.20131724605596
N         3.22175233136212    2.09471561806848    5.66596611417382
N         1.11380999539592    2.38600443197765    3.72115426099946
F         0.18126863735978   -3.26773984998447    5.39212880177660
F         6.29963388339427   -2.33380044971374    1.76183135941359
F         7.62342374850159   -0.75618419784922    5.95447628429894
F         1.16385970835109   -0.12144272434827    8.70366291981802
C         2.04463970379309   -0.16233355428123    5.13915686637876
C         5.58906557028842    0.01754260488468    5.05896699103049
H         5.45926842270199    0.61293597175618    5.94956653377345
C         4.64956862620943    0.02452897264106    4.03576644350307
C         2.65270793842180    1.53383898770275    6.76043871847509
C         0.77021144325567   -2.10865359817534    5.75104663295284
C         1.81840754687702    0.28981626566509    1.33088164536781
H         1.00519441984569    0.93099914028783    1.64259480736878
C         3.85458626966950   -0.67480661188981    1.85924121928655
C         0.67322407013693   -1.69786489301526    7.06833047245971
H         0.14746227622595   -2.28295525335441    7.80417306407216
C         4.88050082687500   -0.77205301763032    2.88916779688401
C         1.97106010002215    0.27318787582829    6.48543046265353
C         3.88876779897021    3.23930972528888    5.78796732084588
H         4.33049606242063    3.62789310191758    4.87944494400053
C         1.43663524831191   -1.36502002632104    4.79594805101170
H         1.47451216933969   -1.74082197042312    3.78456372829733
C         1.23215431329574    3.65388047373434    3.33821903440064
H         2.22695419795309    3.96481112887299    3.04428764418867
C         2.86105823926805   -1.10798447770367   -0.28608056144661
H         2.88711584698678   -1.57950375415090   -1.25626733722826
C         6.72553047889336   -0.76007961689656    4.94914152284120
C         1.28137160304078   -0.50758169408499    7.41247705480669
C         6.04100074572990   -1.54463018960467    2.82839663162347
C        -0.09538640006303    1.94098015439254    4.05659995818935
H        -0.16045176575073    0.90394184474184    4.35606599062679
C         3.89449372406528   -1.29582563192678    0.61040791936995
H         4.73200703618316   -1.91314472589881    0.33764961973359
C         6.97349812469337   -1.55503150677783    3.84461285714955
H         7.86249769376964   -2.15924787126109    3.77339298285773
C         1.79527540191012   -0.30003646381706    0.08283690321033
H         0.96640305288712   -0.12358396925598   -0.58358048963058
C        -1.22483432070750    2.73915635220570    4.03068119184220
H        -2.18141430383175    2.32753239213642    4.31135437560783
C         2.76067179261462    2.15103984869629    8.00594302798992
H         2.31429320533827    1.70455719980135    8.87697727010978
C         0.15666916033941    4.52527761396991    3.28337420712564
H         0.30791484041152    5.54436919203831    2.96489384018754
C         4.02926286662930    3.89988615519627    6.99385488912887
H         4.58189716259155    4.82393433837536    7.04205399476150
C        -1.09910898893178    4.06380954864270    3.64000301157828
H        -1.95981016194121    4.71514746465878    3.61134610273312
C         3.45317878387954    3.34194973823759    8.12510236451193
H         3.54474718201656    3.82259450467229    9.08709961969389

