86
CSD_code = WEBJEV | q = -1 | S = 0 | Stoichiometry = C32H51O2Zn(1-) | MND = 3
Zn       -0.83294591855124    4.60723863676678   12.10216479651973
O         0.91184812542689    4.39254913699821   11.37005428767242
O        -1.01418451478492    6.46461612125584   12.46965941806212
C        -2.13196102334806    3.07406008873084   12.35062920012716
H        -1.96032976425792    2.58918158962962   13.31394485214269
H        -3.16564537130535    3.42240782420554   12.37867695269309
C        -2.01526117032097    2.00741516071828   11.26164851306542
H        -2.30333128510013    2.40723012631651   10.29124246844220
H        -2.66627758023736    1.15432337392414   11.47935246994774
H        -0.99445336971958    1.64074888557759   11.17969281268075
C         1.56715000291767    3.61100869229008   10.55190509571524
C         2.43749356576566    2.59691512042392   11.05199712011926
C         3.02422856464837    1.70988434240544   10.16690443143704
H         3.65224835719199    0.91163491783494   10.53344005124727
C         2.83539911402953    1.79467878390588    8.79906041361681
C         1.47259611373328    3.77359470755657    9.13698687430904
C         3.46426428003354    0.80417070381888    7.85730887240805
H         2.72743928979200    0.41772569044484    7.15203676442851
H         3.88951523984082   -0.03477277186675    8.40569150858447
H         4.26354812390402    1.27238611759447    7.27839977571949
C         2.73142666078993    2.48820413043954   12.54818358990371
C         0.71980501668956    4.95939436771846    8.53249604605546
C         1.21971960337159    6.26343257004481    9.16765897017746
H         0.69071948597469    7.11836721400516    8.74805941548826
H         2.28603984694952    6.38386834793020    8.98119373456547
H         1.05755027109844    6.24522528155332   10.23978693356745
C         0.93198956549982    5.09156086237433    7.01600159650411
H         0.48888961164651    4.25777981379771    6.47470418755317
H         1.99067501818263    5.15263207751795    6.77240034062663
H         0.45151638913462    6.00583714267253    6.66841152953780
C        -0.78709060405404    4.80650106449323    8.76599811555260
H        -1.33183146692587    5.62099911505755    8.28996621323524
H        -1.00851686746395    4.82799416164058    9.83346975049851
H        -1.13849341084098    3.86015128031141    8.35643838912451
C         1.47469364059592    2.03022708920597   13.29615500359120
H         0.67542197367903    2.75112417252407   13.15758416311535
H         1.67572637301036    1.93684382353070   14.36343103111386
H         1.14028468970963    1.06517930025899   12.91800608333777
C         3.84867652974694    1.48510021404610   12.87229391669132
H         3.55337886374720    0.46501849838775   12.63416933776778
H         4.06473012979095    1.52703527793835   13.93986743606486
H         4.76241785798711    1.72704176462150   12.33313964117413
C         3.18661853197971    3.85407343078833   13.07774793984342
H         4.11130557878812    4.15522411716821   12.58734490798266
H         3.35974862703071    3.80777733502579   14.15299334631621
H         2.42772276824480    4.60074768026990   12.87371990069964
C         2.08451067342650    2.85102976555919    8.30904643092468
H         1.98884029664217    2.93106702553920    7.23659540641916
C        -1.57384159024848    7.34746216828625   13.25535288554605
C        -1.04955986582908    7.62574527552214   14.55225826733207
C        -1.73114168012897    8.49500284555847   15.38534160193206
H        -1.36866918767633    8.68858147933928   16.38370622803291
C        -2.88666620700988    9.14813115741307   14.99288290530304
C        -3.33604725887491    8.95529928809907   13.69730769595994
H        -4.21347549813424    9.50473910252025   13.39074247668897
C        -2.70564165566084    8.09765449032569   12.81497526124081
C        -3.63137466092413   10.04685276029171   15.94192690188323
H        -4.43382100852920    9.49900053606339   16.44223653837300
H        -4.08165130588515   10.88538130805584   15.41136243662310
H        -2.96506901676939   10.43881008198752   16.70924765364355
C         0.26120274965754    6.99222040879475   15.01966170131632
C         0.07768105332961    5.48440877148749   15.22593972935858
H        -0.18039850210878    5.00182406421164   14.28300933811939
H        -0.72142161612840    5.29393294937810   15.94140809552278
H         0.99847395558091    5.03544054899360   15.59610020650438
C         1.35496162270761    7.25179322534858   13.97568760540782
H         2.29995243040782    6.81610466232714   14.29773478125602
H         1.49121265876039    8.32354037041983   13.83791583901300
H         1.07621824989565    6.81486547574603   13.02304878383570
C         0.76695058726314    7.57135191916885   16.35032265754155
H         1.73954260871626    7.13658671706921   16.57947558139571
H         0.09497248814476    7.33311077319530   17.17264678218161
H         0.88648641276648    8.65100491204852   16.28787317386045
C        -3.21421210860590    7.96721601845876   11.37956524116252
C        -4.31848759484974    8.97767207916685   11.03515700554421
H        -3.98327977060187    9.99910333864711   11.20369574299952
H        -5.22106339143374    8.79779039755314   11.61602415526187
H        -4.57598927898729    8.87650613678413    9.98083217211049
C        -3.79455963304034    6.56582614655189   11.15836285914187
H        -4.17362434670681    6.46342398224434   10.14159455761227
H        -4.60986385515435    6.38164656725054   11.85662719231877
H        -3.02826104651006    5.81394799420789   11.31836254134417
C        -2.05601990642860    8.21749956191261   10.40521579216751
H        -1.24474854894019    7.52792920870148   10.60889217583992
H        -1.68434741834465    9.23460283637980   10.52176025298805
H        -2.38763531128286    8.08195627803532    9.37578515301852

