27
CSD_code = WEBLUN | q = 0 | S = 0 | Stoichiometry = C8H12Cl2N4Zn | MND = 4
Zn        6.24481500388348    3.51559741123452    3.39764718122620
Cl        4.89920568084196    3.54909361256772    1.61339732932055
Cl        5.92946510020711    4.21057274701494    5.49751367102893
N         7.81260646138063    4.50443285917613    2.46141589049293
N         7.56047249336916    4.79044416739528    1.18154418026778
N         6.80026573363434    1.58599348667885    3.92798057033479
C         7.07366290630572    0.41492745819249    3.37035645513016
H         7.10001047843220    0.30900639523993    2.30401221058341
C         7.28963321646572   -0.54338626541803    4.35743444333353
H         7.52597745964405   -1.57764255339417    4.21758158334191
N         6.83933615522132    1.39586912627566    5.24937541046171
C         7.12593378109993    0.12505534689132    5.56074365965933
C         7.23270906674441   -0.34658470056687    6.96251436669933
H         8.15856867711483    0.01100111987704    7.41238938043605
H         7.22851565871122   -1.43213536440464    6.99426768661217
H         6.40244291884944    0.03325419853187    7.55424167655472
C         9.00717404759252    5.01184519705972    2.73250461939918
H         9.43525338125891    4.91261825166559    3.71021828967900
C         9.52740929715069    5.63502816306763    1.60150722632452
H        10.46979086690549    6.13375288066003    1.51010473269148
C         8.56324720595778    5.47511669159642    0.61759950211301
C         8.52098697060956    5.93704931297503   -0.79081356700287
H         7.91597452428466    5.26346070032316   -1.39269205194555
H         9.52539419914517    5.98714603391404   -1.20251026979457
H         8.08024122299298    6.93242078577717   -0.84600695743036
H         6.65542712240977    4.48891906607537    0.80668993103132
H         6.61748036978072    2.20124387159328    5.84278284944043

