27
CSD_code = WEBLEX | q = 0 | S = 0 | Stoichiometry = C8H12Cl2N4Pd | MND = 4
Pd        2.70455554825162    3.89617886423118    4.56332162685844
Cl        4.36633230255968    5.03409281766170    3.44922452075217
N         3.56475965326946    1.36080984625625    5.71147526834222
C         5.28355187459391    2.23756614790147    4.78710570125256
H         5.87348724746472    2.95245665851879    4.24419456807391
N         3.99034997758060    2.42807206062600    5.02279996866337
C         5.68828710088759    1.02212975493831    5.33881693831010
H         6.67031406839356    0.59841332844703    5.30995373037638
C         4.55777552346683    0.48366885433815    5.92678516562060
C         4.35040650176293   -0.77794029437767    6.67854309197528
H         4.24333461935204   -0.57034957510718    7.74304354298103
H         5.19928734189305   -1.44063902761073    6.53832321737366
H         3.44520736140804   -1.27798831237202    6.33970589466202
H         2.57398990133431    1.34580040810578    5.98970987437842
Cl        1.04201123609546    2.75737563948006    5.67588153958134
N         1.84379018914397    6.43182573219441    3.41677991346416
C         0.12491672662870    5.55381194748100    4.33983949310044
H        -0.46503018793999    4.83832267697915    4.88194535427030
N         1.41819576126995    5.36372650136569    4.10409064769785
C        -0.27992279601595    6.76967251520368    3.78913411660480
H        -1.26206324716317    7.19314623703737    3.81804988374658
C         0.85066056001316    7.30900379803227    3.20211933576535
C         1.05787133588549    8.57147233436065    2.45178295496298
H         1.16512470459431    8.36508271243659    1.38707772794364
H         0.20880604379911    9.23380060404250    2.59259555745613
H         1.96288420374977    9.07141738744092    2.79124541219473
H         2.83451644772931    6.44707038238011    3.13845495359212

