45
CSD_code = WEBNAV | q = 0 | S = 0 | Stoichiometry = C15H22N4NiO2S | MND = 4
Ni        1.44655185435740   -0.25955219564632    2.95824998827482
S        -0.01259855441040   -4.43441648443745    3.47889216474162
O         3.42951874826148    3.21336910924913   -1.19800301387022
H         4.17459967372031    2.70174433063306   -1.53125166005185
O         1.44337337782456   -1.06995454151346    1.30972586363301
N         1.89641668255472    1.40421502744951    2.24026883188252
N         1.62274714280776    0.65471164644772    4.83785617007790
N         1.59018447776578   -0.96342855400085   -2.21389619749906
N         0.78023044119148   -1.80498238382222    3.68602034285574
C         2.13214738613335    2.44505010345185    3.22576867739405
H         1.77954596635286    3.41951415712053    2.86365430414754
H         3.21333197106558    2.52989952558781    3.39588619632966
C         1.40907059753903    2.07635673303603    4.52057883482683
H         1.74815865292182    2.72713012750750    5.33683092006422
H         0.33567188173198    2.22455228409395    4.37277165266501
C         2.98387270553299    0.42488288883231    5.36826950018804
H         2.98658513622701    0.52101244698596    6.45891628737537
H         3.65232030817911    1.18910811665767    4.96671266785756
C         3.52367173707344   -0.94392540427520    4.96870572782004
H         2.96812888645489   -1.74484924010240    5.44937244035603
H         4.57173084754141   -1.02919448627658    5.24581685093661
H         3.43758676790749   -1.07108967880356    3.87813753971992
C         0.59951591708184    0.18078201792120    5.79471185034206
H         0.86446332277957   -0.84007727015020    6.07144936826509
H        -0.35595688659206    0.13610662059344    5.26548793194909
C         0.42332334338436    1.02417605467089    7.05797538486540
H         1.35701046337118    1.15776773671845    7.59900805941755
H        -0.27024417469570    0.50897902147665    7.71706305451521
H         0.00769296799368    2.00409785698667    6.83710750649177
C         1.99911873828108    1.72677135722244    0.99387555893215
H         2.23806884527181    2.75912263196271    0.74387111355468
C         1.85167981858462    0.82731618885318   -0.09832466319970
C         1.97012377272755    1.26529419390586   -1.44295946062240
C         2.24276223130217    2.70938199019027   -1.78222440740609
H         2.27756962292415    2.82073592554547   -2.87398813032280
H         1.43802802719821    3.34799280827927   -1.40330525979712
C         1.83442983983341    0.33188528248841   -2.43977471670974
H         1.91296201209153    0.60665455295054   -3.48301423045607
C         1.46478427558141   -1.40886747150620   -0.99949850376516
C         1.58099577351734   -0.54658256290479    0.15420812671122
C         1.19634323782860   -2.85608908427466   -0.76956298454147
H         1.09137842743327   -3.37006446955214   -1.71948796693388
H         0.29111807275446   -2.97250487151112   -0.17570483087931
H         2.01062466950270   -3.29660802909064   -0.19582493398395
C         0.45996099311734   -2.93122400894587    3.50852804385060

