49
CSD_code = WEBSII | q = 0 | S = 0 | Stoichiometry = C24H16Cl2N4O2Zn | MND = 6
Zn        3.45414574200867    1.81687654808915    2.46542002636192
Cl        8.92026097691161    5.49262753559357    0.87745385690473
Cl        4.96430325532520   -3.68919781586934    6.11222634246167
O         5.22282100162326    2.14394433278900    1.52111537289680
N         3.11890264532301   -0.10896547377235    1.88714894568535
O         4.09166722529114    0.85285305368968    4.13530417081556
N         3.78304263200183    3.74763864572572    3.03126165702363
N         1.61756325568515    2.32122924525023    3.52022149673194
N         2.44770288870607    2.06510224867380    0.55105810282603
C         4.04290960636590   -0.40449042877012    4.00333011822686
C         5.68426516731652    3.29614963719154    1.76592948276437
C         7.40347544596160    4.98438690553107    1.52772674441102
C         3.52884557000358   -1.01370321160071    2.79724421096494
C         2.66212980022854   -0.28795747925924    0.69671651567634
H         2.54254839461894   -1.26446497317416    0.23106242925921
C         2.32059550103477    0.88153622274733   -0.06840752516788
C         4.95996252238729    4.23508345381067    2.59294443895434
C        -0.42019160993772    1.92984155580253    4.68475062631012
H        -1.25280328535872    1.27305889060739    4.87846701000168
C         4.48291483477559   -1.28640958926153    5.02939639081615
H         4.86971017723981   -0.85620357431481    5.93962927524239
C         1.74001288099726    3.50919640662763    4.13216001053659
C         6.69796345923757    5.88854931599872    2.33881077211932
H         7.11278687022903    6.86328354972107    2.53847547925806
C         5.49209842653405    5.50710199058541    2.86164504780534
H         4.94047950273754    6.19500636985325    3.48573077191118
C         6.93142322848014    3.73461642945217    1.24003923815314
H         7.49032999495643    3.05266581911121    0.61891817991232
C         2.91358321634668    4.27976873046442    3.81792281721062
H         3.02520420993973    5.26214110063994    4.27316835718950
C         0.57560544258669    1.56096199372856    3.79318125405763
H         0.53321051919542    0.61258487598431    3.27489289853819
C         3.49110376215759   -2.41166895099692    2.66448220397303
H         3.10846732942129   -2.85081164568401    1.75469212693176
C         0.77494400761639    3.96195081626904    5.04093632251423
H         0.89780683938155    4.92249372685019    5.51749173540336
C         4.42205210394198   -2.64012034749625    4.85237530542440
C         1.89043095763776    0.79979905250817   -1.39907834753751
H         1.79509888089619   -0.16556125532885   -1.87215462114640
C        -0.31310185346871    3.16116451581462    5.31998829700938
H        -1.06736069399961    3.48390198842141    6.02239088889520
C         2.17703760684667    3.17149083479533   -0.11289792012653
H         2.30359419424258    4.09520804704070    0.43540968730627
C         1.75338086817989    3.17989657532831   -1.43312801491961
H         1.54671368392867    4.11065559712481   -1.93623869977919
C         3.92838813903361   -3.22500069770859    3.67455728214040
H         3.90193476029506   -4.29862438317736    3.58150075991025
C         1.60727470592931    1.96195679959851   -2.08623208929894
H         1.28066520920460    1.92655701498649   -3.11513943256004

