79
CSD_code = WEBTIJ | q = 0 | S = 0 | Stoichiometry = C40H32Cl2N4Zn | MND = 4
N        -0.10869271952350   -7.01071040964178    7.43088393829007
N        -0.08062870188427   -5.56631268981842    5.74870442859851
C        -0.29144508060948   -5.76547959587510    7.98670757814195
C        -0.46998922095260   -5.34689695795349    9.29673101126291
H        -0.49195765071312   -6.04746264221723   10.11734815803317
C        -0.62734556515064   -3.99078694306382    9.49763405469487
H        -0.76746738033896   -3.61913989043299   10.50153362030568
C        -0.61222125776004   -3.08476164802191    8.43367576389327
H        -0.73954700355264   -2.03376846066899    8.64330416187970
C        -0.43970186809546   -3.49535136420959    7.12900830813588
H        -0.43519860471887   -2.79945930506180    6.30574010805553
C        -0.27313986279341   -4.85833533058876    6.91041470596771
C         0.00971671501084   -6.83600568761192    6.08992805423549
C         0.17460675294972   -7.93083486941392    5.13825184004637
C         1.16444088903446   -7.86425629295548    4.16017363250115
H         1.84725401341480   -7.02936940970845    4.14302484971831
C         1.29062444870385   -8.88604732531318    3.23625700468626
H         2.05779050197909   -8.82441947719583    2.47891592668638
C         0.44485485787853   -9.98233828882621    3.28458672716489
H         0.54980223943987  -10.78274682327096    2.56686383789952
C        -0.53321824053269  -10.05734201360299    4.26264427962542
H        -1.19399844785044  -10.91078842189171    4.30505179340246
C        -0.67286103507720   -9.03777459512719    5.18601973333633
H        -1.45839265327120   -9.09000240472751    5.92584815461273
C         0.00017385825063   -8.22472151514397    8.19191025586187
H         0.74892864553200   -8.07301933739363    8.97882954448374
H         0.36407103368206   -9.01910011013344    7.53165829225808
C        -1.30929770813988   -8.63617911471132    8.82674894617278
C        -2.52548945473940   -8.15417366707667    8.36338656318735
H        -2.55792814038158   -7.46252057511501    7.53333908327557
C        -3.70693512676844   -8.54714281003921    8.96924591882302
H        -4.64744318720558   -8.15985499201575    8.60684918608926
C        -3.68576676408710   -9.42588699479288   10.03736301831917
H        -4.60801368625841   -9.72773580198331   10.51023279011113
C        -2.47505035148867   -9.91359843735576   10.50071836741746
H        -2.45010844354044  -10.59793072054155   11.33539310694005
C        -1.29400762151908   -9.51866832181093    9.89997057938339
H        -0.34946262066558   -9.89492959099866   10.26615104132958
Zn        0.46224942465307   -4.64317097427972    3.97770917331696
Cl       -0.63528929387696   -2.74003155186788    3.66317537744186
Cl        2.67399995343459   -4.64381815482908    4.15786372148785
N        -1.53280690510933   -6.62737153891177    0.82739106901636
N        -0.18132228378617   -5.74648254313177    2.34868232443911
C        -0.39172305499358   -6.24846187712645    0.15845033554279
C        -0.02073586954590   -6.33510576111118   -1.17504273472832
H        -0.67318392602584   -6.76820396236812   -1.91764395036166
C         1.22805116500840   -5.84841108726946   -1.50346538317639
H         1.55848434459308   -5.89384040327046   -2.53028465585606
C         2.07865410250280   -5.29980696056646   -0.53979077651645
H         3.04638494669393   -4.93409521903073   -0.84728040761877
C         1.71669792659544   -5.21381334867326    0.78767831529773
H         2.37360832262953   -4.79791774663707    1.53441877356238
C         0.45827514952484   -5.69331641367791    1.13368153329028
C        -1.35433975332748   -6.30736752922378    2.13433410868739
C        -2.32938990117483   -6.59374152085126    3.18281213989080
C        -2.87670621767952   -7.87110325274594    3.30298175510617
H        -2.58157669869256   -8.65560037983156    2.62135155399461
C        -3.77363171050309   -8.14744904636754    4.31825453518015
H        -4.19169525032813   -9.13950118304617    4.40661924945791
C        -4.12977071981536   -7.15922180426495    5.22125268907206
H        -4.83218538449112   -7.38093373951525    6.01130822481962
C        -3.59128351377172   -5.88824066836739    5.10235905818491
H        -3.86882411546606   -5.11285730663388    5.80067270181899
C        -2.69838346224102   -5.59943589312302    4.08602071179552
H        -2.30774290331721   -4.60022224761723    3.97399223748574
C        -2.69094554500164   -7.19235880478671    0.19161092889465
H        -3.51798651823536   -7.19206387607674    0.90955650496187
H        -2.97464930310301   -6.54587789295611   -0.64770393138192
C        -2.44977471691792   -8.59415148253867   -0.32214650439914
C        -3.29358287181177   -9.11281037746969   -1.29675485103287
H        -4.10581215161495   -8.50800237645894   -1.67403293406138
C        -3.09842870904461  -10.39118067946798   -1.78598538905033
H        -3.75933842946799  -10.78218605419945   -2.54489969648061
C        -2.05291380973228  -11.16432745653448   -1.30903260845879
H        -1.89481407688664  -12.15967190419020   -1.69577598949535
C        -1.20991250403330  -10.65319388997893   -0.33863199744776
H        -0.39018561773791  -11.24939082303315    0.03350357214919
C        -1.40676676569884   -9.37499252524481    0.15598610993926
H        -0.73625891046095   -8.98771690637413    0.91025674044962

