92
CSD_code = WEBWOS | q = 0 | S = 0 | Stoichiometry = C37H50ClN2OsP | MND = 8
Os        2.42626285650012    6.06490697189166   10.89759187379272
Cl        2.11172737027312    6.41357820987095   13.17479700156679
P         2.30500219433591    3.90152834035073   11.18663275036612
N         1.47777221365080    2.84340074960172   13.64360747141536
N         3.53324017153263    3.54955545441035   13.73019634442729
C         2.42597292147471    3.50528046798847   12.94606341776435
C         1.97022538202882    2.51342681431627   14.87783036122928
H         1.37696129099645    1.99558221734269   15.60290211076363
C         3.24602661182132    2.95812561372511   14.93168278560956
H         3.96887983444815    2.88702047206419   15.71730180153633
C         0.23745773961988    2.39682094645300   13.11059732925775
C        -0.88412649041074    3.22436685985972   13.15710458200380
C        -2.08181879994353    2.72879831367584   12.65601163836980
H        -2.96488786303966    3.34795533458226   12.68159935502588
C        -2.15779238422152    1.45870676711643   12.12095981228320
H        -3.09701509242076    1.09061063847679   11.73480682580173
C        -1.03153151240119    0.66008286729087   12.06920551326976
H        -1.09973728654331   -0.32498776591847   11.63450821198273
C         0.18441743008287    1.11047740573725   12.56370488971801
C        -0.81590568604119    4.62630168399160   13.70524057943472
H         0.19559529052748    4.83140325993361   14.06273490227172
C        -1.10410668798457    5.62727358737816   12.58495663906062
H        -0.37174249156689    5.49346285849799   11.78249937213447
H        -1.00786835680426    6.63897540540280   12.96961418754450
H        -2.10293489507946    5.49456814128492   12.17598811433484
C        -1.78421077101532    4.81126451798004   14.87509067333341
H        -2.81773574539586    4.70991843366030   14.55282372914864
H        -1.65391741913228    5.80159404383684   15.30354247788124
H        -1.59198857999570    4.07224491467471   15.65045327198999
C         1.40929806806524    0.23135011297305   12.46795383064792
H         2.24365018009339    0.71306669855722   12.98452963256586
C         1.80493983785122    0.06911456251907   10.99865910649075
H         1.02478334632829   -0.44409612786141   10.44257540482299
H         2.72303826518637   -0.50876470988646   10.91925796101777
H         1.96347655232039    1.04912358878223   10.55179464156882
C         1.17888369826071   -1.12737242178332   13.13314420305847
H         0.41733362961452   -1.69881301079134   12.60970711182558
H         0.86144943745653   -0.99828315108975   14.16584889853057
H         2.10087115901138   -1.70457461915135   13.12583182558651
C         4.78530721991908    4.10643513408206   13.35002181769270
C         5.28122995136090    5.24042877440158   14.00415072458959
C         6.47540566458188    5.78426820155813   13.54522544466383
H         6.87578095494563    6.66330896706107   14.02433643206177
C         7.16147235862542    5.22015391721476   12.49024388382944
H         8.07849356958786    5.67056954973946   12.13837308979693
C         6.69920185843111    4.05367282739497   11.91123637853053
H         7.27619671039416    3.59266701523981   11.12682347925830
C         5.51588893184445    3.46755918296742   12.33500409997332
C         4.62933263955847    5.82647989322440   15.23467285962037
H         3.59964533713940    5.46997794030439   15.29711168409026
C         4.57072580968810    7.35353052849904   15.20743252278801
H         5.55958987498802    7.80088918013253   15.27041287405104
H         3.98456123608593    7.70568091124328   16.05261432248845
H         4.08129459884581    7.68264007179905   14.29743929762008
C         5.40970624859510    5.36503800531452   16.47212512073973
H         5.50187364229950    4.28148894550637   16.50889436330606
H         4.90713584031898    5.70056800523761   17.37623211707031
H         6.41441202727025    5.78271861851944   16.46092566243406
C         5.09531205062011    2.11201244240437   11.81221806467790
H         4.00488830293152    2.08723163886528   11.73624779246073
C         5.63557738728363    1.79434584198587   10.42028075843925
H         5.42072738744228    2.61283676214099    9.73953287291783
H         5.14821636262293    0.89985341714702   10.03968541853172
H         6.70729117134098    1.60963244399688   10.43721046698167
C         5.54562153924534    1.03866139210234   12.81017892745474
H         6.62843940681373    1.05575869927913   12.91965365047830
H         5.24999673506384    0.05322731563320   12.45721895788368
H         5.10078505291046    1.20055030296665   13.78963043979326
C         2.71956079550456    6.37918838742849    8.71988975280852
C         3.86852041121556    6.82468803152134    9.42654391704393
H         4.84897507692700    6.45267351257739    9.14783403640546
C         3.78954473263444    7.90571159941279   10.33868749499558
H         4.69954344966840    8.29708497190614   10.77989106482638
C         2.56455147718645    8.53885154440298   10.59988905965257
C         1.40456719999254    8.03504559639917    9.99660436033151
H         0.45249961574024    8.51990866643681   10.17694864359853
C         1.47486872944844    6.95003592578494    9.09135343292605
H         0.58004134010367    6.65820635184643    8.54907605302088
C         2.81018104685099    5.46681886123110    7.51901637083954
H         1.80687038975463    5.07160940324081    7.32031372027905
C         3.25516911336885    6.29164430610978    6.30517042284593
H         2.56600605652421    7.11503512532246    6.12532623870873
H         3.28602930976900    5.66684674665005    5.41518818167643
H         4.24845844598294    6.70555120610154    6.47037315107168
C         3.74546323138309    4.27889561361851    7.73744986254613
H         3.67140923119735    3.58808901630669    6.90057016825360
H         3.46699998892362    3.75660844938737    8.65168522635104
H         4.78045540803673    4.60322579885915    7.81824604967060
C         2.48507810988217    9.68401255228292   11.56404806184720
H         3.42655645789523   10.23012581639032   11.60207424201634
H         2.27382565892705    9.30351680360702   12.56708869568770
H         1.68456943300533   10.36974533948023   11.28984762908959

