90
CSD_code = WEBWEI | q = 0 | S = 0 | Stoichiometry = C31H54BN3Ti | MND = 9
Ti        6.06412837729114   11.75509962356378   12.17493273629777
N         7.66485395670896   11.39464267175262   11.37099943440893
N         6.63729428136043   12.28639195543924   14.02009202363772
N         5.32396826266243   13.64056076526342   12.88990097079795
B         7.33576053282221   12.36966377290300   10.25725033995595
C         8.54896343328230   10.37228316621270   11.31165162644768
C         8.85980576124574    9.62761729186517   12.46840115345941
C         9.76107952109054    8.58619879838991   12.44098738688473
C        10.40830453526013    8.21993306942675   11.26519058818526
C        10.11309016162557    8.94415908899600   10.11586447485900
C         9.21830442792829    9.99193100604307   10.12904541259394
C        11.37638092191517    7.07446860543764   11.24496860505704
C         8.32231277613088   13.70544033123714   10.19746303065892
C         8.68549146597872   14.10789173142521   11.63458898333742
C         9.63309404114978   13.33922953639953    9.48641867657373
C         7.63404230125782   14.91350397180594    9.50621066282574
C         6.97828939093646   14.55605322838210    8.17104388442643
C         8.55464422548106   16.11645682168231    9.27070239069607
C         6.16836794237376   13.52322393004226   13.89627081801408
C         6.56400229689346   14.67446571234975   14.79894015928133
C         4.75961245346270   14.91992354621723   12.49908248842416
C         4.09717242329455   14.81227524753632   11.12312318795012
C         3.71037712876428   15.43300106778987   13.50046744013197
C         7.46258607645131   11.80266658381069   15.11503364845918
C         8.94825821328754   12.17550550200153   14.97905965954801
C         6.93732288699289   12.15756329846683   16.51763037826667
C         4.42132459593489   10.47363325704762   13.29672392333135
C         5.37793981572470    9.59284171025842   12.70971486011406
C         5.29311698032117    9.74964701475962   11.29831566004996
C         4.29324677895583   10.72827590920169   11.02325060639117
C         3.73333721414475   11.14426833923558   12.25768302006120
C         4.00748195435779   10.50406309699069   14.73897494891711
C         6.01567250850648    8.43431780368090   13.42608650723158
C         5.93072604676928    8.87902515034213   10.25461568120315
C         3.79402831595368   11.06122180209234    9.64562892439605
C         2.44671597597901   11.88709090400479   12.46727634472189
H         8.37291585093285    9.90017269767412   13.39388421972805
H         9.97434449857498    8.04310316268607   13.35298063311697
H        10.60047940200975    8.68080464008962    9.18651238135119
H         9.00885575287681   10.52838536194840    9.21853826276778
H        11.98721234873480    7.10015600329666   10.34564185200986
H        12.03154223818603    7.10647995790486   12.11422735013685
H        10.84198237586866    6.12313962936341   11.26589004469747
H         9.41979106733552   14.91317852170021   11.66076768663729
H         7.79468868810252   14.43072209028849   12.17587271735164
H         9.11212358643190   13.24910212875116   12.15341786412075
H        10.34355005805619   14.16434724702357    9.50855465425233
H        10.09355153739105   12.49090422766250    9.98704213254728
H         9.45353387103211   13.06429088556289    8.45035366553451
H         6.83922144561247   15.24488264590196   10.18626369006896
H         6.51853746509819   15.44118848883477    7.73298673145983
H         7.71705324159586   14.17732938896577    7.46987403870185
H         6.21051045364147   13.79940352677039    8.30112504004694
H         7.96380845847130   16.96992057382193    8.94030350796325
H         9.08044563479151   16.40736133300615   10.17579612024130
H         9.28623269588356   15.89923623018063    8.49689230019079
H         6.48173419582774   15.62097223030760   14.26915320133154
H         5.91574338906283   14.71269392683966   15.67307984853959
H         7.59094157481803   14.56470037948850   15.13069607127190
H         5.56067346482325   15.67984749303221   12.42085035764894
H         3.79161525637900   15.80132843302318   10.78704389224655
H         4.78701412098527   14.39195078030748   10.39439702785695
H         3.21694402054294   14.17903814770488   11.18048752670568
H         3.33719038342151   16.40050322379428   13.17184289215904
H         4.11983995199901   15.54494857989021   14.49939451094732
H         2.87205590208960   14.74240915079377   13.55082012588175
H         7.40172221422660   10.70600443340117   15.03703229401557
H         9.52984626735794   11.62438544445823   15.71519471833406
H         9.11894690232620   13.23728712938348   15.13766569285795
H         9.30549765876738   11.91488414979524   13.98450515758316
H         7.30025003334378   11.42196411275277   17.23260449115821
H         7.27762864315124   13.13393686989115   16.84846972190068
H         5.84990200128668   12.13945829909058   16.52950283465806
H         3.79028008294596   11.52320719788832   15.06187805838571
H         4.78078052898636   10.09029590548276   15.38308357655726
H         3.09942322320902    9.91021516714388   14.87914352865228
H         6.86331256712632    8.03871506152151   12.87150415566502
H         6.35172465196876    8.70633333989405   14.42628393668510
H         5.27824704901617    7.63308646610952   13.53380623768357
H         6.29968024409028    9.47266837426744    9.41868563088974
H         6.76637315722474    8.31484446558275   10.66275686001030
H         5.19372588513847    8.16960274760948    9.86792635930934
H         3.25096335889293   12.00527280287072    9.63426091872904
H         4.62348784523737   11.13426923918193    8.94172411827308
H         3.11957345609168   10.27681601214599    9.29044209662245
H         2.07647515239497   12.31837442796253   11.53998345875508
H         2.55444694674321   12.67532688507627   13.21067127741855
H         1.68713869008663   11.19083048730016   12.83455258089667
H         7.16319197696596   11.83527672496804    9.19827840556051
H         6.15205055053767   12.73450785756588   10.74376290430034

