47
CSD_code = WEBZAH | q = 0 | S = 0 | Stoichiometry = C20H20FeN2S4 | MND = 4
Fe        5.00675880951512    4.44638891753663    3.04736486099231
S         3.13026776586064    4.60413614432374    4.32066387730689
S         5.19391569475075    2.67331698313683    4.45808613929767
S         6.94150834442513    4.29424710789976    1.88253474560095
S         6.32464072254962    6.00923101626237    4.04928847355256
N         2.93864606555047    2.48960136762492    5.95668096965619
N         8.46170444222368    6.45525176742441    2.48808409511461
C         3.65839329023710    3.14252734751284    5.03349688097113
C         1.82653324465891    3.14411137980134    6.62053212468057
H         0.95499963293632    2.48346935366874    6.58070767226559
H         1.60053217719588    4.07090273646175    6.09302521348613
C         2.23311726692264    3.40854411089172    8.06590575212685
H         1.47271616880176    4.00566585319810    8.56931677977835
H         3.16641482198726    3.97485860748531    8.06457063899592
C         2.42327393701836    2.07164276638670    8.77435060679235
H         3.00707665323934    2.20530612318460    9.68747247325931
H         1.44686681679083    1.67464147360650    9.07215641212652
C         3.09149463626950    1.04640039547742    7.89716998358154
C         3.46327095253113   -0.17298047073748    8.44841328616590
H         3.29224949357347   -0.33799260257339    9.50273619994455
C         4.04253129471965   -1.16514139530236    7.68068577365911
H         4.32976004287649   -2.10165246990869    8.13395904151408
C         4.23758482962253   -0.95373430623214    6.32618986497650
H         4.66708978538093   -1.72781776736111    5.70924028080533
C         3.87318373197277    0.24949948642697    5.75592516930158
H         4.00435538639870    0.40341946408870    4.69782118117817
C         3.32359036225435    1.26392812250460    6.53555342806900
C         7.40748788117856    5.67517215417746    2.76762266591391
C         8.57940643140948    7.77354152050651    3.08261265825273
H         9.59595613374366    7.89121726561232    3.46962523496612
H         7.86902760485164    7.85035402337682    3.90587412093004
C         8.29920817261734    8.80667916124164    1.99662039774140
H         8.26170548784151    9.80778379990233    2.42606142936160
H         7.32478556182320    8.59002656081677    1.55367891733290
C         9.39609655150840    8.71570618522180    0.94039769302450
H         9.07351064705318    9.19601923984086    0.01412920391238
H        10.28233051075739    9.25565155448795    1.29031280478086
C         9.80532209489679    7.29483539055526    0.65426821581835
C        10.69022011921404    7.04373570834639   -0.38660990720791
H        11.03276820537756    7.87451750511524   -0.98710913327479
C        11.13285732674222    5.76434399026187   -0.66315713677280
H        11.81422422009339    5.59353306652013   -1.48267125359487
C        10.70898344552225    4.70853987816688    0.12660925712588
H        11.06664177553295    3.70816835946895   -0.06201136970809
C         9.83114516959951    4.93436732548226    1.16781262515084
H         9.51934590543087    4.11723868825859    1.79675976980272
C         9.35450038456476    6.21749710984947    1.42264188123082

