117
CSD_code = WECFIW | q = 0 | S = 0 | Stoichiometry = C42H70I2P2Pd | MND = 4
Pd        1.14495725162206    1.75502546134093    3.85786749422915
I         1.32198570837580   -0.77615125130455    4.62644080601098
I         0.14621913271693    7.52253753205700    0.27050698408502
P         3.35759617415493    1.85947999397205    3.14002709821967
P        -0.99344045263313    1.94359540710070    4.76064102069731
C         0.88872974711686    3.51119982321143    2.99825959406316
C         1.10249509193980    4.77723643070573    3.52666836616075
H         1.44632395790018    4.90178704786878    4.54833737383249
C         0.89083652097095    5.91401864787077    2.76030623326172
H         1.06277773860002    6.89210251542944    3.18598642771442
C         0.46346462652443    5.78102033619421    1.45341130298160
C         0.23906067624383    4.53410310388876    0.90219061255812
H        -0.09718211337384    4.43577576964494   -0.11938185326176
C         0.45107409524497    3.40704131621826    1.68171269769298
H         0.26237276542396    2.42563661240720    1.23975259829109
C         3.87150514820316    0.27312165336936    2.32502575296988
H         3.78845276648999   -0.45601273866775    3.14276488711032
C         5.28475005365032    0.15051780657230    1.76651477153273
H         5.41135448215925    0.78112205380366    0.88482508538145
H         6.02210978947299    0.45282692308243    2.51392224336848
C         5.52258812546679   -1.30747514896751    1.36970711667992
H         5.45614214509457   -1.93806602670342    2.25915961060953
H         6.52737412178893   -1.41693117690995    0.95508814177874
C         4.48650354076912   -1.76995508782267    0.34747921226388
H         4.59899585736520   -1.18618495664456   -0.57033992175110
H         4.66066272203599   -2.81811886625548    0.09780295701695
C         3.06848587185344   -1.59478063619950    0.88632029956477
H         2.92470498321338   -2.22795239523729    1.76427897199328
H         2.34324116498023   -1.90061179082048    0.12941209129882
C         2.83902641606554   -0.13706223171083    1.27018246056460
H         1.82098787029344   -0.00102675914158    1.66938999382655
H         2.92964237030554    0.48249223811021    0.37707692560051
C         3.92630823879156    3.29058164633083    2.05582103821519
H         3.35496799108649    4.14587808433885    2.44664133255131
C         3.50828180832755    3.09884159585327    0.59707912525175
H         4.12725945293318    2.32905462761502    0.13364699647344
H         2.46601920867382    2.78106567996265    0.54295350563900
C         3.69215693032432    4.39674522792095   -0.18352971378127
H         3.06888601679616    5.17917902422162    0.25556269912922
H         3.37079143962701    4.25497834686848   -1.21765675011523
C         5.15450336926505    4.82450473610406   -0.14237543978022
H         5.76744818093386    4.07235785157981   -0.64551300958129
H         5.28461961873395    5.76999778313095   -0.67211726693321
C         5.61580141069841    4.97150241242439    1.30307820476493
H         5.05017115962161    5.77645029358605    1.77986703725123
H         6.67277812948472    5.24580423242481    1.33112528546314
C         5.40676397856771    3.67718420520136    2.09221180407915
H         5.75124711549833    3.84905767633916    3.11180930338940
H         6.01730175474697    2.88565456772292    1.65563251920101
C         4.49382039767999    2.04425271268097    4.60343886232297
H         5.51996894866359    2.13210535994478    4.22687234994807
C         4.44736689968753    0.87548696321336    5.58459254347287
H         3.43430652848388    0.76848496595813    5.97804113635595
H         4.72029898589691   -0.05943850783003    5.09220006254043
C         5.39403474638567    1.13114045027553    6.75334419481136
H         5.36758885217933    0.27860033540534    7.43427401206722
H         6.41754149487530    1.23294581568223    6.38319706911256
C         4.98890280757915    2.40186243224464    7.49226738795247
H         5.67494497450032    2.59191143394888    8.32010325578287
H         3.98887084055204    2.26845757802249    7.91109502579553
C         4.98680940795649    3.59010813452574    6.53618337425034
H         6.00573394251168    3.76988459566654    6.18235272055969
H         4.65336783147958    4.49082120338100    7.05711109088761
C         4.08165126835794    3.32418090259295    5.33697081095088
H         4.11230745824300    4.18442271363689    4.66339167480331
H         3.04352149293399    3.20134991172996    5.67553564222679
C        -1.99732477542952    3.51002913588799    4.47824224210473
H        -1.24161508521231    4.30362294730669    4.59473287666109
C        -3.15646711787903    3.84255558512149    5.42098070903765
H        -3.96779116023437    3.12563493343187    5.29401030819699
H        -2.85149341418567    3.82147741095972    6.46775965291041
C        -3.67200172887799    5.25024068946588    5.11387215784794
H        -4.49435924513036    5.48991467918541    5.79174749854147
H        -2.87116028829144    5.97240580489473    5.29296881433797
C        -4.14012855536617    5.36896613776183    3.66762394333607
H        -4.46810156830016    6.39038205807197    3.46583431996710
H        -4.99395212020397    4.70607382235140    3.50629763394245
C        -3.01229833065720    4.98171429369164    2.71803234522459
H        -2.18580691419412    5.68879474855430    2.82057184116633
H        -3.36013767572763    5.02351768312593    1.68365572189640
C        -2.52154140809831    3.57405684641625    3.04213397964759
H        -1.73961234098486    3.28522651497986    2.33891701728066
H        -3.35716197112205    2.88171269768588    2.92541397127431
C        -2.03020977018019    0.48199721759595    4.27826820485147
H        -1.56458411022053   -0.34586082662115    4.82993030857965
C        -3.51640398223753    0.46873493057226    4.61792793235924
H        -3.67561476448950    0.70427755221351    5.67275026612812
H        -4.05738290294415    1.20338572899219    4.01925216361568
C        -4.06955820310358   -0.92242257566643    4.30542568190288
H        -3.56500717053296   -1.66083302326410    4.93257038349542
H        -5.13620801922006   -0.95594067122063    4.53897701262243
C        -3.85006884675463   -1.27362927492693    2.83543178327649
H        -4.22558801425965   -2.27943519874687    2.63869009969950
H        -4.41676960875408   -0.57859820897227    2.20977477334749
C        -2.37044045306864   -1.19366420899689    2.46619750278505
H        -2.24143761580044   -1.41042709617282    1.40362487180727
H        -1.80820026372454   -1.93976438911827    3.03186086821786
C        -1.82667142695591    0.19437914356018    2.78667944027948
H        -2.34847533285047    0.93643800558504    2.17856883824273
H        -0.75305498194620    0.24875513394077    2.53489590889021
C        -0.81859672926159    1.92578457681509    6.62393183762502
H        -1.56887570180671    2.60571375308909    7.04010717388149
C         0.56795785883090    2.51032894756365    6.91616979324526
H         1.33133041358537    1.83735438813407    6.49048029335993
H         0.65362955987333    3.49383236370398    6.43390855421542
C         0.80443331706665    2.64690737149819    8.41538124192306
H         0.08591831698828    3.35798704408821    8.83269127151661
H         1.80621648133134    3.04177960064535    8.60177898939655
C         0.63422870746298    1.29326704548791    9.09735309964855
H         1.37998290311877    0.59381744761198    8.71302459200052
H         0.79143577572570    1.39548990021361   10.17283710483106
C        -0.76010198167535    0.73875187025636    8.82274177650242
H        -1.51015789066543    1.41668166374726    9.24002507779219
H        -0.87652432964780   -0.23056861995179    9.31029669504856
C        -0.98889196875321    0.57681620753848    7.32057408233707
H        -1.99370653667111    0.18663103580525    7.14921165028964
H        -0.27169006071368   -0.14891942305885    6.93822045140718

