39
CSD_code = WECGOD | q = 0 | S = 0 | Stoichiometry = C12H22BrClP2Pd | MND = 4
Pd        0.37210919058213    1.43870295018175    2.38173371094273
Br        1.94089735163130    0.26149778245578    3.80263438773114
Cl       -3.79995984225563    4.25246808408873   -1.72455192341586
P        -1.32519287012886    0.39410134862762    3.43844137834955
P         2.10794273680394    2.46691326147299    1.37002723164283
C        -0.90759796276926    2.34608271019032    1.16760104250870
C        -1.46979483075766    3.58569549455027    1.44540208762665
C        -2.35921580289791    4.17731414010881    0.56177225920886
C        -2.68597858929957    3.51730208064678   -0.61038831285935
C        -2.13962416704166    2.28079678258236   -0.90979843001948
C        -1.25186630649026    1.70339172380019   -0.01552833326197
C        -1.24193487925111   -1.42865136774862    3.30662117364817
C        -1.35074782332166    0.64925372732692    5.24974018917702
C        -3.07058107926640    0.72633057215108    2.98655235062093
C         3.27385539625656    1.30133444623422    0.57695705122685
C         3.19816374205397    3.39116276200843    2.51206357081293
C         1.83393764445518    3.69255670717437    0.03455194378703
H        -1.21360202442901    4.10487603360509    2.36628640055060
H        -2.79491152679600    5.14107751127724    0.77890893223547
H        -2.40587877169191    1.77909944148294   -1.82812422801983
H        -0.82117202720719    0.73008651589944   -0.25072810201793
H        -0.28666892472347   -1.77204771610565    3.70529933646364
H        -1.31019694784092   -1.71776510608101    2.25701306231993
H        -2.05977420156725   -1.88422712606107    3.86463100341024
H        -1.48408634935423    1.71064334129413    5.46286700154911
H        -0.39949644375536    0.32272617493706    5.67090357646268
H        -2.16700665426149    0.08155426625414    5.69645398064316
H        -3.73932952473928    0.12666186565394    3.60323577174116
H        -3.22761020923358    0.48672055639836    1.93577020294868
H        -3.28843154311947    1.78344055358920    3.13242127425735
H         4.11277445569920    1.84560376959143    0.14350676274502
H         3.63829415603017    0.59557052961440    1.32417282259419
H         2.75325172218313    0.74870511507836   -0.20641131190096
H         4.03262697034370    3.82732302025302    1.96312842352680
H         2.62530342261751    4.18320106180096    2.99623252290960
H         3.57394950555303    2.71112398256490    3.27707259123809
H         1.24033709113757    4.52156670599929    0.41747080079131
H         1.28302304146632    3.22568204632560   -0.78086874774420
H         2.78849287547068    4.06612425081619   -0.33467345441356

