39
CSD_code = WECGET | q = 0 | S = 0 | Stoichiometry = C12H22I2P2Pd | MND = 4
Pd        5.12392535747714    1.37436486889438    2.53492481219074
I         6.80475389875142    0.12247093786182    4.09190959371238
I         0.70309412332022    4.44179822302583   -1.76797146404037
P         6.83050201121303    2.43503970777083    1.48447769404602
P         3.37006550612246    0.34990423109837    3.54312560633117
C         3.84670262176019    2.28532099383903    1.31249760659301
C         3.28971183211821    3.52049536402982    1.62106586577472
C         2.40038659073130    4.13580729962622    0.75369319417474
C         2.06874711906449    3.50549182941807   -0.43072077406135
C         2.60862689594768    2.27675918562038   -0.76155938633165
C         3.49684722696353    1.67284188529872    0.11454098192014
H         3.92141464907619    0.70396414721083   -0.14802536527869
C         6.48932916431733    3.62911652059225    0.13526633047824
C         7.89862176101602    3.43068859941131    2.58486830830632
C         8.02457575319845    1.30949824906522    0.67794041436865
C         3.26247768543919    0.59617999361405    5.35168784682442
C         3.40204457872797   -1.47158002889260    3.38767582672803
C         1.65202598185421    0.72859041146229    3.02579069872733
H         3.54902201002953    4.01958717133551    2.55324030008691
H         1.97344996236093    5.09601824864397    1.00336159522189
H         2.34365291854079    1.79135564035036   -1.68939749706348
H         5.94856881440235    3.13116909707708   -0.66900248579291
H         7.42634511487656    4.03120918159438   -0.24954754907131
H         5.87185070887846    4.44313687930994    0.51390317797817
H         8.68726020855081    3.90936456668062    2.00409215748835
H         8.34066147444341    2.78789992704853    3.34595285340965
H         7.29390710185008    4.19358215492370    3.07794611162674
H         8.46102799132921    0.64472179972796    1.42337346234384
H         8.81234192779070    1.88702508254789    0.19399953890167
H         7.50304062685176    0.70710542293307   -0.06766748184033
H         3.17140631601734    1.66249427713741    5.56454597677580
H         2.39318758803060    0.06997350401172    5.74649611204222
H         4.16780414337898    0.21997648437194    5.82759847037330
H         4.31920563241757   -1.85979406711839    3.83083543478905
H         2.53815179237740   -1.90454349745138    3.89216275155915
H         3.38074713963856   -1.74150801360331    2.33049160877552
H         1.44707655996471    1.78722672167663    3.18265364787291
H         1.52894838565954    0.50657005818200    1.96619702835494
H         0.94989082612831    0.13167694352462    3.60757699605363

