55
CSD_code = WECGOA | q = 0 | S = 0 | Stoichiometry = C25H21ClN2OP2PdS2 | MND = 4
Pd        8.88310525313414    1.76719693863221   21.40861747050761
Cl       10.43474330392537    3.17772338265953   20.65761870454963
S         8.96938122550001    2.70596960196060   23.59781220885341
P         8.90542265576538    0.77801263374939   24.07924550642963
N         7.35188866126884    0.13182748849347   24.11913611759859
H         6.84685385426031    0.04888805139863   24.99246576102457
C         6.58559552446126    0.10683349846191   22.93658528630278
O         5.39963380716845   -0.13433866305499   22.95272920599386
N         7.36999873011278    0.30864315127136   21.86996339584024
P         6.80525913217726    0.67876636015898   20.37590707251584
S         8.49579321490307    0.71420296966620   19.31195576877513
C         9.41112033724709    0.55474872363711   25.80424096461188
C        10.31696184535112   -0.42820215969344   26.17693960019177
H        10.74330524032544   -1.08063769944606   25.42803584819193
C        10.66704057977555   -0.56091463241090   27.50941830306453
H        11.37103150862751   -1.32400768415400   27.80560712737472
C        10.11943197843475    0.28504350577627   28.45997662921878
H        10.39694231089676    0.17844181990914   29.49780890128930
C         9.22313978128208    1.27378380868634   28.08353236696204
H         8.80463782068771    1.93725072972009   28.82516310057165
C         8.87045080510899    1.41326828685777   26.75456274394026
H         8.18928660579506    2.19162500943941   26.43714841159228
C         9.90083416975697   -0.36971669827500   23.05034471069044
C        10.97296812214497    0.14016646127725   22.30455908685266
H        11.33308998140282    1.15798868862493   22.47575810470913
C        11.60943278406622   -0.68352674023734   21.38838552860936
H        12.42334835479727   -0.29232572541456   20.79692730156764
C        11.19006233813187   -1.99711359462288   21.22533663102665
H        11.66842193748530   -2.62520367088580   20.48928095004582
C        10.16378289574373   -2.50799804038295   22.00239709435326
H         9.85164688006136   -3.53505643198778   21.88306215916572
C         9.51121958335524   -1.69664835028493   22.91635645139590
H         8.68880683427866   -2.07772095670098   23.50634657933918
C         5.60577269258429   -0.51650124156594   19.74604037758314
C         5.77840104757245   -1.84682123966890   20.10236636299243
H         6.58900453779923   -2.11307459860164   20.76831539320597
C         4.91030737663045   -2.80216180075387   19.60902276678166
H         5.03086276419045   -3.83850958043478   19.88747205290375
C         3.88431504795583   -2.42668279690003   18.75597172563915
H         3.20536693336743   -3.17361767444339   18.37216766245745
C         3.72589507329156   -1.09948255937875   18.38973639321999
H         2.92770957436499   -0.81454308107905   17.72041493624000
C         4.58905894714145   -0.13720156975112   18.88142431480807
H         4.48039289897310    0.90194387934734   18.60275506404574
C         5.99334566411833    2.31114892746408   20.58550414533859
C         6.72492487091659    3.48669730628036   20.39104174598335
H         7.70211196675888    3.47204376564551   19.89190116116685
C         6.16912464947218    4.69939542302045   20.76772149189334
H         6.73132059575185    5.60892635493566   20.61894837934089
C         4.90488632161273    4.74023805003525   21.33522102747113
H         4.48223912878057    5.68613673285375   21.64008696692072
C         4.17920153636498    3.57314222861748   21.51249302379769
H         3.19376381244854    3.60804951530193   21.95301347510060
C         4.71938190652958    2.35336578595142   21.14244573523744
H         4.17447459577557    1.43373811041804   21.30521070470048

