25
CSD_code = WECHIV | q = 1 | S = 0 | Stoichiometry = C4H12Cl2N4O2Rh(1+) | MND = 6
Rh       -0.00024977958776   -0.00008454141784    0.00042303933386
Cl       -1.15642796442413   -0.40149452236431    1.98587698582615
O         2.37131876483678    0.54282029124166    1.49286205155164
N         1.42433007447127   -1.28091149080655    0.56996617888235
N         1.24398640972521    1.25752704622722    0.98445287493014
C         2.38515204195975   -0.76402382259428    1.23533358698049
C         3.57069698896771   -1.46696163658312    1.78341294412702
H         1.48599216647503   -2.28193166323424    0.40238979533411
H         0.79494485186717    1.69537798816358    1.80308928959897
H         1.62936127560072    1.99603322348005    0.37684709807377
H         4.47818483044075   -1.03040256436014    1.36872888392532
H         3.54044900093870   -2.52765014580528    1.55410981496682
H         3.61079650080379   -1.32843318989456    2.86293447523483
Cl        1.15611950678173    0.40138893004362   -1.98531928042542
N        -1.42421243869846    1.28095764911597   -0.57017375382303
C        -2.38509484365143    0.76404444289758   -1.23543296900806
O        -2.37125684374035   -0.54279950582803   -1.49296322809775
N        -1.24392133129947   -1.25750530939550   -0.98456086852820
H        -0.79481512180049   -1.69530289743342   -1.80319487832790
H        -1.62932127237382   -1.99604987578798   -0.37702447807693
C        -3.57069362776345    1.46696010555229   -1.78342341048494
H        -4.47815889878403    1.03040416103000   -1.36867714668835
H        -3.54043764730962    2.52765292013694   -1.55414147637320
H        -3.61085414180138    1.32841064045462   -2.86293712428497
H        -1.48588850163413    2.28197376716162   -0.40257840464677

