81
CSD_code = WECHIY | q = 0 | S = 0 | Stoichiometry = C42H34BrClP2Pd | MND = 4
Pd       -1.12171311414118    3.07933844471114    2.65684146462683
Br       -1.12064188862681    5.52606753569231    2.65608767810070
P         1.03729514607173    3.02331307968748    3.27401817445523
Cl       -1.12117914930867   -3.39221138979426    2.65640428483001
C        -1.12087883605043    1.11007501031595    2.65650476561031
C        -1.31311677749823    0.40667848333582    3.83641023344492
C        -1.31234633307386   -0.97812661199248    3.84583008004959
C        -1.12114992969587   -1.65738065151757    2.65642329051456
C         2.29121933125462    3.66449987084949    2.13479676875363
C         3.65136952597504    3.48835650817538    2.37656945036917
C         4.57634124368175    3.99187215873467    1.48186133481344
C         4.15237647188466    4.65948456349646    0.34261628559942
C         2.80009993133225    4.81500282571656    0.08844699647774
C         1.86904604245207    4.31544174113272    0.98113198946670
C         1.73486205303248    1.41259710847971    3.75112730643752
C         2.07434866822315    0.53237229129557    2.72625090383549
C         2.46594522363927   -0.75847582014902    3.01818506988626
C         2.51809406960642   -1.18397027748317    4.33635312610296
C         2.18708860090301   -0.31178108115202    5.35895566786857
C         1.79023583609525    0.98225610405768    5.07095129560377
C         1.13678165643098    3.99856340011635    4.80393485470923
C        -0.01194958796609    3.96577237895093    5.59540552470183
C        -0.06102827085682    4.67355362462378    6.77970695916026
C         1.03432304891017    5.42683171320230    7.17447909469231
C         2.16953101020970    5.47330940621522    6.38357147747052
C         2.22677412253111    4.76138694421984    5.19728329076394
H        -1.46574683570648    0.93429395135255    4.77581334159758
H        -1.45741431496318   -1.52448151132101    4.76554602617848
H         3.97602415203360    2.94647604843577    3.25526205186079
H         5.63211735770283    3.86214285227374    1.67089314091716
H         4.88095717162935    5.05270930561014   -0.35095175613773
H         2.47122040265493    5.32732211946018   -0.80336663770148
H         0.80615591180109    4.43773747613039    0.79203346549359
H         2.02218906143051    0.87090644438555    1.69871274667810
H         2.72145040035179   -1.43852465121102    2.21912387957729
H         2.81321421090016   -2.19725956445268    4.56441291577186
H         2.22984931866919   -0.64238914808058    6.38663549517223
H         1.52378955888509    1.65957253108493    5.87145366098011
H        -0.87867367012179    3.38314887878795    5.25709144848835
H        -0.95176091547707    4.65095829516446    7.39063007908292
H         0.99580132128201    5.98989095732787    8.09512421601888
H         3.01418344471712    6.07435117672445    6.68677473285957
H         3.10586529576065    4.81579496818799    4.57166451342861
C        -0.92893847539994    0.40671665355358    1.47651842507708
C        -0.92994594259343   -0.97809256728399    1.46703212727566
H        -0.77638413215405    0.93435713874655    0.53712137858188
H        -0.78495309545357   -1.52443651635167    0.54729599218987
P        -3.27957257431177    3.02332599571995    2.03885405768522
C        -4.53349687367760    3.66454049875443    3.17806355821393
C        -5.89363977036242    3.48838741611907    2.93626297546480
C        -6.81862443150504    3.99187414927435    3.83097613380074
C        -6.39468078787571    4.65946682000283    4.97024216219596
C        -5.04241667140473    4.81498025639728    5.22444027502599
C        -4.11135334317467    4.31543537911257    4.33176887178840
C        -3.97721018986413    1.41264416736270    1.56172696673947
C        -4.31663874891534    0.53239922814498    2.58660585426329
C        -4.70818246208282   -0.75846392071853    2.29467258651801
C        -4.76033192504521   -1.18395914976053    0.97650450420734
C        -4.42932855619382   -0.31176812587100   -0.04609815015142
C        -4.03253010428119    0.98228600494544    0.24190469439580
C        -3.37902983363262    3.99855297168825    0.50891146441722
C        -2.23030371282955    3.96578566480457   -0.28257595888359
C        -2.18124382601037    4.67359355710900   -1.46686723598369
C        -3.27660648010588    5.42687020794786   -1.86162298863995
C        -4.41181712881899    5.47330399414387   -1.07071771015680
C        -4.46903988506238    4.76136448226753    0.11556497385164
H        -6.21827612611102    2.94652169528396    2.05755142168612
H        -7.87439960293670    3.86220321138663    3.64188761262959
H        -7.12326982626418    5.05270268945985    5.66379285951095
H        -4.71354323218360    5.32727166521753    6.11627295445954
H        -3.04848793060064    4.43768120567178    4.52094561420925
H        -4.26448157248034    0.87092578335453    3.61414578125846
H        -4.96371531435831   -1.43850178254516    3.09373300839034
H        -5.05549634605646   -2.19723424750662    0.74844227485042
H        -4.47210588143505   -0.64236902833538   -1.07377901246445
H        -3.76604628486536    1.65959152157198   -0.55859450293498
H        -1.36354286551276    3.38320921177709    0.05572471811185
H        -1.29053074562430    4.65098168508099   -2.07782199221128
H        -3.23812185983328    5.98989189849480   -2.78229384832860
H        -5.25652609648418    6.07423840952446   -1.37397007562309
H        -5.34813733107577    4.81574428468089    0.74117753998428

