39
CSD_code = WECJIA | q = 0 | S = 0 | Stoichiometry = C12H22Br2P2Pd | MND = 4
Pd        4.92052061791754    7.09133917864779    2.40530636693767
Br        6.47689353007755    5.91753014782100    3.84219658434917
Br        0.66058607116661    9.98892178926223   -1.82994249289389
P         6.66602096078442    8.12784634146709    1.41856248789167
P         3.21715046056104    6.03715393061895    3.44528186709548
C         3.65193614512818    7.99841422177330    1.18200361249147
C         3.31157172881098    7.35847265418139   -0.00426597967322
C         2.42846037137664    7.93853621698563   -0.90111727847265
C         1.88494358234008    9.17400231928332   -0.59806473494692
C         2.20532822917616    9.83395455779575    0.57473425042623
C         3.09004389650557    9.23894032607302    1.46003244372588
C         6.40626652642530    9.35690648814742    0.08266317296084
C         7.84942598079395    6.97151635991673    0.63845019990465
C         7.73515685690170    9.05425491843479    2.57803716206067
C         1.47463344402076    6.35990412469034    2.97451648640484
C         3.17009300731343    6.29550787407142    5.25523063308759
C         3.30984768033516    4.21496879337020    3.31432979020620
H         3.74177526878282    6.38564792829011   -0.24105091024505
H         2.16675063391362    7.43928165067885   -1.82237740733869
H         1.76958207508519   10.79775990069293    0.79280586198173
H         3.34169954996308    9.75588332592913    2.38321837446754
H         7.36444401612306    9.73620101547771   -0.27087525213945
H         5.80399274978704   10.18259301914807    0.45940002414694
H         5.87102896076975    8.89046428444193   -0.74342954830637
H         8.68887155564342    7.52252898597683    0.21499369795988
H         8.21067417788512    6.26850751469012    1.38967740842798
H         7.34290362575757    6.41463905610315   -0.15091761030921
H         8.10002275768440    8.37496809895143    3.34886592434244
H         7.15326544010375    9.84513990152897    3.05303760732689
H         8.57754323997530    9.49217044223660    2.04280185118020
H         1.24852367163077    7.41600111612731    3.11583445955298
H         0.80271508159806    5.75828268260017    3.58570808362722
H         1.32889521808220    6.11545698736948    1.92319576245287
H         2.35623989271178    5.71860684064985    5.69409666180124
H         3.02162227700618    7.35535925622731    5.46546975920674
H         4.12054503517281    5.98089688451556    5.68700824602515
H         4.25999966098685    3.87493242211040    3.72730424267448
H         2.48512224987565    3.75669207235656    3.85978962618748
H         3.25840377182835    3.92531637137026    2.26388856544050

