57
CSD_code = WECJAS | q = 0 | S = 0 | Stoichiometry = C18H34BrIP2Pd | MND = 4
Pd       -6.39710191452009    4.80064594483020    8.06074002861627
I        -6.39771529582568    6.85641380413385    6.43746450347892
P        -8.66959581270054    4.77710548026621    8.07536623637809
Br       -6.39715620531524   -0.40114556897831   12.22849310430572
C        -6.39725299092349    3.25704439624520    9.29068103812309
C        -6.39721907546493    3.45435996669065   10.66703985634325
H        -6.39721837357087    4.46237673258638   11.07760437370173
C        -6.39718030165813    2.37948887041608   11.54142215221673
H        -6.39717179196018    2.53806181068326   12.60992208092689
C        -6.39716245509826    1.09598488782306   11.02617823472208
C        -6.39716753508416    0.87025394742857    9.66170733615919
H        -6.39714880845297   -0.13881188038319    9.27623204342603
C        -6.39720637121713    1.95599760424640    8.80073236793091
H        -6.39719465614090    1.77301701706751    7.72794347473728
C        -9.36157506867432    6.37170276611195    8.67163270083454
H        -9.20832699640930    7.11243734466437    7.88108958747895
H       -10.43378985868584    6.28738106173299    8.86236362655361
C        -8.59262293240497    6.78245736350947    9.92399121872701
H        -8.84628564186959    7.79558798530267   10.22883834643452
H        -7.51323935745943    6.74693680834313    9.71223419772117
H        -8.80304624407458    6.10657562540106   10.75286013501111
C        -9.53574604829911    3.49326576819851    9.08553943937956
H        -9.17594570675013    2.52487194558337    8.72074817076698
H        -9.15928061675547    3.60110875217771   10.10863320620623
C       -11.05799490760898    3.51695623924139    9.08611105899038
H       -11.43008588511326    2.70180805409289    9.70435294714400
H       -11.46125960166316    3.38621003263710    8.08472734135169
H       -11.44322166377140    4.44765707743095    9.49568499313187
C        -9.35631718694542    4.56354657535278    6.38396317504360
H       -10.42745596544936    4.35217245975201    6.41888987651245
H        -9.20714103787140    5.50543732669543    5.84757052239904
C        -8.58030747478187    3.44506755571355    5.69462607666975
H        -8.82667818082082    3.38746795674332    4.63647354637850
H        -8.79143048682859    2.47951460322276    6.15413116984066
H        -7.50197225127978    3.64476895572210    5.78637476086124
P        -4.12471728187266    4.77703270256957    8.07541905845768
C        -3.43281852237626    6.37166472394110    8.67167941689681
H        -3.58608037727349    7.11239273433381    7.88113395413418
H        -2.36060661736733    6.28737873173173    8.86242776256712
C        -4.20181149155043    6.78239540306252    9.92402111583405
H        -3.94820624880135    7.79554193219465   10.22886237428814
H        -5.28119241235315    6.74681949579579    9.71225392760799
H        -3.99136822289922    6.10653309135258   10.75290008688654
C        -3.25858028106381    3.49319378706121    9.08558616679939
H        -3.61838227302870    2.52480503479836    8.72078627698296
H        -3.63504332254595    3.60104290965882   10.10867962995333
C        -1.73633653690176    3.51692371917972    9.08612170608650
H        -1.36421875586783    2.70178526348810    9.70435832235697
H        -1.33309577808085    3.38618647264297    8.08472764448465
H        -1.35112750148040    4.44763725058861    9.49568273336497
C        -3.43807283811709    4.56349783726430    6.38398556073412
H        -2.36693446060091    4.35212846021449    6.41887226333930
H        -3.58727490350070    5.50538657374346    5.84759855974405
C        -4.21411241631580    3.44502114299817    5.69467916737532
H        -3.96779314919084    3.38742820895399    4.63651536217071
H        -4.00296578601727    2.47946690634068    6.15416788634329
H        -5.29244612134362    3.64471234740287    5.78647809508669

