127
CSD_code = WECJUM | q = 0 | S = 0 | Stoichiometry = C48H74Br2P2Pd | MND = 4
Pd        2.75272797295541   13.53081598186118    5.70396151667083
Br        4.19204092036971   11.72607410362918    4.86749832910846
Br       -1.22234241731471   23.23789458538608    8.70064686263282
P         3.63171317967573   13.14094018076197    7.80049756880961
P         1.73227373269583   13.77775120015394    3.65949930756563
C         1.80000258729826   15.14212038641197    6.31998060565976
C         2.62473541543761   16.25910772887657    6.27117788206034
H         3.65138792102561   16.17076750787777    5.91476234055513
C         2.16819247998706   17.50870002698173    6.65331335344472
H         2.82524417147938   18.36584753096760    6.59315203384848
C         0.85149811737847   17.67977337934571    7.07438187431269
C         0.01453839513809   16.56718524212209    7.09810641118510
H        -1.00915936631086   16.67624028332205    7.43015969511801
C         0.48234061840554   15.31835528960699    6.72730145118432
H        -0.20550784043445   14.48015380607601    6.75704901320824
C         0.35499868318979   19.00472862214831    7.46564758319938
C         1.13991343182648   19.86004718441785    8.23717779102144
H         2.11655856013349   19.53744002516225    8.56678436731817
C         0.67992061402360   21.10887731037901    8.60686606342854
H         1.29084137059151   21.76327579425751    9.20987763032774
C        -0.57903894138447   21.51204732277340    8.19682318586369
C        -1.37950675778865   20.68565581561657    7.42755716463361
H        -2.35690421606744   21.01645382990287    7.11082586080385
C        -0.90919878536839   19.43746297120556    7.06872588713953
H        -1.52669171122319   18.79715638598229    6.45601238923479
C         3.36503237200639   11.34742174658766    8.21021996378220
H         4.09575731890732   10.84039535173022    7.56412895561669
C         3.61011855263405   10.88335285421408    9.64202487771986
H         4.58446942182270   11.22511534148153    9.99834065872087
H         2.84556888706929   11.28249982329477   10.31086524798116
C         3.54662466777044    9.35615661363156    9.67893229027910
H         4.33821155317837    8.94646615825520    9.04755256655826
H         3.71446894755876    9.00338509280741   10.69910924367428
C         2.19233495528648    8.86108917439470    9.17614189153822
H         2.17266194092114    7.76968293412973    9.18565350072971
H         1.40638338887776    9.21385521875828    9.84943499088831
C         1.91289217577873    9.37149932951305    7.76420930856044
H         0.92652236664766    9.03220922830775    7.43894196597868
H         2.65410186915787    8.96477570451091    7.07283121363588
C         1.98083333980036   10.89507222890012    7.73583179053441
H         1.19773967464982   11.30270470349338    8.37855303858217
H         1.80673135965597   11.26409822409975    6.70968387798092
C         2.96842137708491   14.20533025747424    9.19705256967956
H         2.97674263378307   15.21306210587188    8.75126536979819
C         1.51013439815436   13.83719376348606    9.47224033976151
H         1.46616219276070   12.89165479196539   10.01558586973486
H         0.97482833508276   13.71456761204491    8.52807968470665
C         0.84239194321667   14.91408078102473   10.32021353426618
H         0.85931650556341   15.86465581796000    9.78139111256210
H        -0.20215889771744   14.65097977569913   10.50136389165972
C         1.58203494181545   15.05735963891683   11.64633696298507
H         1.49452471115762   14.12650446213693   12.21243867719230
H         1.13261400260382   15.85358214709408   12.24306752078462
C         3.05590924519013   15.36388694916793   11.40180072865332
H         3.14245021949070   16.33334289338757   10.90426441176738
H         3.58448455381503   15.42966625308476   12.35552568687218
C         3.71386511034218   14.29373826428239   10.52804804452140
H         4.75879914777531   14.57293015461769   10.38544132857458
H         3.68783249933729   13.33469345646695   11.04652150361351
C         5.48090837689981   13.40876740234970    7.92104808543012
H         5.70113183631276   13.73193471252396    8.94427756303815
C         5.79857495225197   14.56423987356543    6.96604185584840
H         5.50900269304770   14.27255344114190    5.94381812883734
H         5.20982982379156   15.43967777772589    7.26059139072291
C         7.27924202935531   14.92707917323750    6.98560962526250
H         7.47433751651875   15.71597647708022    6.25554656584977
H         7.54214555827460   15.31509710154911    7.97392488257483
C         8.13410427526485   13.70278373179489    6.68012149357425
H         9.19233820509584   13.96985834162122    6.71013161691257
H         7.90413612305054   13.33815786571637    5.67708408742569
C         7.83922823782049   12.60168805228916    7.69204075145102
H         8.45965237699187   11.72816673524189    7.48462449104112
H         8.08280927882964   12.95562047017288    8.69809801010130
C         6.36742333867557   12.19878796667030    7.62454904761439
H         6.18195835284186   11.40737745390393    8.35257410688692
H         6.16256482684617   11.80643520729151    6.62911646616192
C         0.68369372478346   15.30051409605012    3.33800610020913
H         0.16702073872618   15.45021209243724    4.29710077620577
C         1.55847534547576   16.53348541598172    3.11031795497507
H         2.35516697245161   16.56828444157473    3.85673940008031
H         2.01311440289417   16.48788330536797    2.11918498656295
C         0.71329718696077   17.80036659553240    3.19853860869172
H         0.27288981118248   17.87395099568997    4.19570812180366
H         1.34446356983890   18.67901269234492    3.04885959411721
C        -0.38922486080359   17.76246894209683    2.14555515904332
H        -1.01685411401265   18.65221613786955    2.22674052038188
H         0.06110784679024   17.76242891057622    1.14978180480995
C        -1.24205003091201   16.50942663588869    2.31487000495622
H        -2.00770601269572   16.47317355617468    1.53655821665414
H        -1.75078949322144   16.54960988825164    3.28165242286544
C        -0.38987972731489   15.24008365479550    2.25130036560772
H         0.06658059424114   15.16016235233345    1.26411384935583
H        -1.04847330044993   14.38234067478073    2.39170730892964
C         0.50237848976472   12.40254519968653    3.39604818333698
H        -0.03251967088671   12.58684641380097    2.45674980708573
C        -0.46943976763801   12.45453192695442    4.57904559631171
H        -0.95905095483095   13.43072177903176    4.62442440489334
H         0.11350644879579   12.32314401732798    5.50564714283908
C        -1.53186533141940   11.36415516868621    4.48341642804401
H        -2.18486379020299   11.40926843683711    5.35816194035369
H        -2.14908114210802   11.54155345334062    3.59843802093051
C        -0.88688386844398    9.98674707324475    4.37990781562873
H        -1.65809966679509    9.22036861854185    4.27999236021119
H        -0.32292626085377    9.77967325471272    5.29220512495328
C         0.05898485148639    9.94277669007400    3.18506154604705
H         0.53262788247721    8.96182626931284    3.11972643448699
H        -0.50792476215713   10.10404540187045    2.26421619466571
C         1.13622070361102   11.01448003174921    3.32309182041468
H         1.82394559885549   10.94801340026905    2.47848681324683
H         1.70338419894468   10.81844484125497    4.23556183435680
C         2.96985985729731   13.59802959754792    2.28843730670035
H         3.30100687340003   12.55542502096912    2.39631327163666
C         2.50110184623768   13.78024033846713    0.84971660920561
H         1.61399995853181   13.17340288037665    0.65362462557735
H         2.25235761269404   14.82520650063806    0.65530911202108
C         3.63362510780882   13.35796812730723   -0.08723599244323
H         3.32301873304762   13.49196848366613   -1.12605995034016
H         3.84927697276588   12.29803020499320    0.06451252517102
C         4.89669529334924   14.17218399341050    0.18509581120032
H         5.69895812078392   13.83583655049468   -0.47432905665447
H         4.70241625250335   15.22495152223348   -0.03767565966757
C         5.33295350795776   14.03770467371621    1.64243768449079
H         6.21737133398064   14.65255554881279    1.82247174169821
H         5.59469281502880   12.99963114710846    1.85699004664810
C         4.19838353036523   14.47013258275345    2.56497873900190
H         3.97603144294874   15.52347291672782    2.38857357451519
H         4.50155347999955   14.36331441444549    3.61864599130137

