23
CSD_code = WECKUK | q = 0 | S = 0 | Stoichiometry = C6H6F3N2O5Re | MND = 6
Re        3.49468022729169    1.05725572371155    3.25880238779614
F         8.77046425299005   -1.08412097297057    3.56004261012147
F         7.48951605619748   -1.22468889186523    1.83402608213848
F         8.42266661349831    0.65306659172360    2.33289576440672
O         1.84832467995410    0.71559446329172    3.31378672248418
O         3.65952643819901    2.08537505745447    1.94457898737691
O         3.78553556079377    1.99084616362470    4.62076084325535
O         5.65050708035645    0.36317138888874    2.99421740061044
O         6.59670003035214   -0.31340274163531    4.91881378083909
N         3.70108149285986   -0.79291433186811    4.62619247372004
N         3.63259261551080   -0.69721938151263    1.70962270305958
C         4.17118444151922   -1.22133057941639    5.58068197269541
C         4.72572554101632   -1.77573488205131    6.76110115076543
C         4.17704859416563   -1.19194252891978    0.83157246274000
C         4.84455367417658   -1.81916980046820   -0.25315740217066
C         6.56717678043858   -0.07643688784791    3.73519600744988
C         7.84289510409876   -0.42289975437722    2.86603151144555
H         4.64743395329797   -2.86215022202396    6.74787687117493
H         5.77539393351404   -1.47710073582980    6.79800104111075
H         4.19883857468040   -1.37501822802902    7.62653709499868
H         4.37266327684970   -2.77307000373358   -0.48708758540200
H         5.88771504662088   -1.97976808630635    0.02253547967692
H         4.79847603161924   -1.16484135984251   -1.12382836028403

