59
CSD_code = WECKUN | q = 0 | S = 0 | Stoichiometry = C26H20N4O8Zn | MND = 4
Zn       -0.80222909586480    1.66940668587900    5.29980498389849
O        -0.56153549671874    1.55709242073440    3.24790038334732
O         0.74153146733123    0.50559943656978    4.64576968104032
O         5.58973380448881    5.36301036858938    3.69036658728796
O         3.83257481441029    6.49865473460925    3.20153481151145
N         4.44453235534718    5.45161067589671    3.29700020499231
N         0.49229104171565    3.31265136186493    5.53906901021364
C         0.46220629712782    0.89750187182235    3.49655431387380
C         1.48887309046595    0.68619655122183    2.37584918498804
H         2.05985935294359   -0.22175671252018    2.55541844778047
H         0.96451738860380    0.64081636118710    1.42299981706764
C         2.33735354981764    1.91191842678552    2.48459539122824
C         1.78599055903014    3.15216680864746    2.15562555832496
H         0.78974156156715    3.18883677083033    1.74268974139993
C         2.47990839143067    4.31561433478721    2.39987515672274
H         2.05843817969760    5.28306196752421    2.17355213790175
C         3.75147235768018    4.24356285466836    2.96308099450315
C         4.33469254118996    3.01464439441242    3.25375386368042
H         5.32728361179181    2.98986865370874    3.67717651755935
C         3.62108232432760    1.85691610655029    3.02252940482439
H         4.05360383016412    0.90094494175512    3.27431506852713
C         1.78402154821384    3.21109273685002    5.79198949006891
H         2.16145760737278    2.20433537619697    5.89505232732907
C         2.60833814202127    4.31969720493135    5.91788644855031
H         3.65711121795303    4.19804091660056    6.13741538841699
C         2.04892467566250    5.57693961975598    5.75567251339427
H         2.65574346399724    6.46740460218997    5.82105007889472
C         0.69105665861206    5.67804020538972    5.50185052363671
H         0.24475065379608    6.64992588873076    5.37383538633631
C        -0.07280850078293    4.51525934383201    5.41390406670269
N        -2.09365728466570    3.31339047375150    5.05364040117275
C        -3.38542480914089    3.21247826039831    4.80073394435012
H        -3.76342808728532    2.20592360615097    4.69778635336265
C        -4.20900208126983    4.32157118435888    4.67452803189782
H        -5.25772006918198    4.20027318138945    4.45447522404359
C        -3.64908640426178    5.57857558259811    4.83683449243684
H        -4.25569718974133    6.46922581803121    4.77291804527684
C        -2.29105068476117    5.67886647335732    5.09022149984790
H        -1.84409515953490    6.65047638593280    5.21806821464992
C        -1.52780962351111    4.51569612683031    5.17819718847615
O        -1.04832053181371    1.57153501322926    7.35366888295639
O        -2.34394243449350    0.50754397095942    5.95840595426301
O        -7.24432385394535    5.33587078167731    6.91071177383098
O        -5.47847668457420    6.48336568824242    7.33740477002266
N        -6.09058935532836    5.43381286010318    7.27559413113043
C        -2.06905079022088    0.90685701660319    7.10622942995611
C        -3.09764465375070    0.69697348630871    8.22529671551634
H        -3.66250101809446   -0.21569057276251    8.05002562720676
H        -2.57552919435842    0.66047048974294    9.17982662892524
C        -3.95456091817695    1.91617418742459    8.10815356003499
C        -3.40953456223117    3.16314477778127    8.42195517773905
H        -2.41118291469185    3.21020748755859    8.82875480713518
C        -4.11253348503202    4.31959542968940    8.17059039314993
H        -3.69612863791502    5.29192360733945    8.38503782218121
C        -5.38720692267882    4.23366449370133    7.61647251508298
C        -5.96421941338910    2.99827771512857    7.34170139393235
H        -6.95936902925917    2.96290549809625    6.92506024609240
C        -5.24123562022392    1.84753417366038    7.57903930220445
H        -5.66909598000943    0.88640189258961    7.33924998903364

