41
CSD_code = WECMUN | q = 0 | S = 0 | Stoichiometry = C14H14N4O6S2Zn | MND = 4
Zn        1.65263664080222    4.35127646193614    8.23695781187819
S        -0.44499582907984    5.70331227764366    7.34900765636299
O        -0.40849799679627    4.24572246983434    7.31739410937351
O        -1.42813586708728    6.29385030630400    8.19528875488795
O         2.91583370903191    6.77228162289083    6.42511477402327
N         1.10418691401451    6.12752332404772    7.61521741688322
C         1.70377328963188    6.61803892599498    6.52361315632323
C         0.73229058460836    6.88594331125483    5.41782280296073
C         0.99224066720507    7.50832708379077    4.20729232933129
H         1.97918711201693    7.89319251984700    4.00275078240607
C        -0.04314861761225    7.62519860945426    3.29112051175328
H         0.13371574820787    8.11354025615939    2.34450142397601
C        -1.30518708626365    7.12377107745525    3.57584582593605
H        -2.09708290241489    7.22441227819139    2.84915050849419
C        -1.56417657239240    6.49359821796034    4.78863123480350
H        -2.54095769127100    6.10174964612065    5.02315538175184
C        -0.53070902366739    6.38286404153087    5.69005894219594
S         0.42474621153314    3.31395651984798   10.27797978323889
O         0.84733639800777    2.88933797199527   11.57932555198317
O         0.59050257296392    4.73971045030702   10.01965655583715
O         0.77630649207521    1.25941411005872    7.28059484580980
N         1.24047851054205    2.59553254605340    9.05831891460274
C         0.43187605920446    1.81528279603913    8.31680438902526
C        -0.96233909779735    1.75909668193149    8.84785181747773
C        -2.01941929589986    1.03138471322431    8.32617210980236
H        -1.85002542677473    0.35378030916930    7.50382341620849
C        -3.27737041005283    1.20556832777335    8.88443084236290
H        -4.11634249906097    0.64779571151020    8.49491698812231
C        -3.47653634591515    2.09366410612518    9.93179749052040
H        -4.46601370036119    2.22154169783203   10.34450779678789
C        -2.41666071727349    2.82631985491306   10.45554818982438
H        -2.55708011166534    3.52270458921207   11.26654363993283
C        -1.17676958633839    2.64235928134083    9.89227453107700
N         2.35157439739465    3.40508690368211    6.47522589102952
H         1.89732038235559    2.48028397744984    6.57690234611896
H         3.34896013013825    3.24170560302677    6.38829239963956
H         2.02810812225496    3.80093903723556    5.59927090579973
N         3.47528125733730    5.17494525777483    8.87239499511406
H         3.23798544382543    5.68857338339741    9.71577508745867
H         3.65382168938023    5.87035548006847    8.14031821912723
H         4.32338644519264    4.64775825961361    9.04924986976994

