34
CSD_code = WECNIE | q = 0 | S = 0 | Stoichiometry = C14H13ClN4PdS | MND = 4
Pd        1.02689886414229   -1.04796236087536    1.92482076583801
Cl        0.38980162464219   -2.65768609680652    3.29730227413290
S         1.58385149669159   -2.55402646389907    0.28247432962587
N         0.68082144495799    0.78058549143423    3.07509324186163
N         1.59579375451570    0.26693063977323    0.63672630969701
N         2.04986052669197   -0.04278376582521   -0.57483676011524
N         2.51507309049221   -1.80334720778398   -2.03281202557546
H         2.47597740850870   -2.81338825861799   -2.10322976112720
C        -0.13541715554151   -0.16298178387601    5.15340092982957
H        -0.91474747406830   -0.75152814400530    4.66749010809642
H        -0.47487358360111    0.15176133478017    6.13570810053709
H         0.72622817979569   -0.82390180681932    5.25632612025106
C         0.22029292944762    1.00657926588273    4.30655681423398
C         0.07445260024155    2.30473828693989    4.79580454168979
H        -0.30278248322623    2.45358419814164    5.79469260148325
C         0.41298199431116    3.38744316469516    4.00113388738420
H         0.30296463516203    4.39570836872377    4.37059169978712
C         0.89460962283273    3.15221882591308    2.72966187172052
H         1.17389843980721    3.96111937681442    2.07416967416426
C         1.02021546536465    1.83260111683188    2.28558466041563
C         1.51230994135736    1.52133442823641    0.97845264474579
H         1.80829773578006    2.30190776843168    0.28635950349475
C         2.08707425331809   -1.32533381055654   -0.84812243715667
C         2.98375089760395   -1.14380705892271   -3.16528570280438
C         3.12452081577032    0.23920343588131   -3.23641313023936
H         2.86016741557441    0.83715483316040   -2.38117663825132
C         3.59858880132931    0.82165812169337   -4.39733117377767
H         3.70569735163398    1.89511456725162   -4.44483378045314
C         3.93577153329150    0.04506247824898   -5.49313604238733
H         4.30465693812236    0.50796242225526   -6.39556266797239
C         3.79680456797575   -1.33170393090520   -5.42360680615484
H         4.05679196301843   -1.94656731312888   -6.27216989741898
C         3.32519978540141   -1.92527680951079   -4.26953483475977
H         3.21756661865460   -2.99957331355612   -4.21709842079549

