55
CSD_code = WECNOH | q = 1 | S = 0 | Stoichiometry = C16H33IrO2P3(1+) | MND = 6
Ir        5.58741831168712    7.58308762712200    4.13653753022451
P         5.19856432105076    5.55862443334977    3.01618198718282
C         6.56198764260589    5.17462266705816    1.86659310494092
C         3.73498447613229    5.51317983179988    1.91930076753408
C         5.07388696929747    3.95994015241371    3.90462894279294
P         4.42675031932661    7.08790469719088    6.07820528236579
C         4.00943038612839    8.45256004271194    7.22143338838241
C         5.04582146856545    5.81399781716876    7.23244174574821
C         2.74621006303795    6.51860847665194    5.64411108625494
P         6.31090828318262    9.75913554258605    4.64769715691604
C         7.36167712165021   10.45530483343685    3.32533629059167
C         7.40054682770261   10.00926127852613    6.09580899987119
C         5.05302499522451   11.07517713765396    4.84462754740229
O         4.01917831916888    8.50593826869137    2.98341097037336
O         5.99268373255393    8.14803251122060    2.14854937172217
C         4.81346160717252    8.59251950685459    2.01470104332715
C         4.39634145076230    9.19903562065910    0.73758241737102
C         5.31345357111425    9.32956535646611   -0.30243689665262
C         4.91695964084203    9.89980550212139   -1.49664188892206
C         3.61099633614803   10.33850659681006   -1.65586666220929
C         2.69677377790347   10.20878818617368   -0.62126987243951
C         3.08561142896589    9.64018718498181    0.57621187081680
H         6.87362000855147    6.99940077485406    4.72156542484539
H         6.31799112338517    4.28299012109052    1.28934079980328
H         6.73222616934566    6.01317343820512    1.19597877003564
H         7.46840132403740    5.00295133687917    2.44391257891936
H         3.65886206440249    4.52805661389266    1.45958426545833
H         2.82782855761474    5.72253715764597    2.48299261364063
H         3.83746943453702    6.26443869206648    1.13753862279805
H         5.00990953747931    3.15055784118890    3.17905390716523
H         5.96952580876815    3.82648076311716    4.50733256825430
H         4.20126067403970    3.92395499876489    4.55097521824772
H         3.40526877150111    8.06174433718852    8.03965912227513
H         4.91150530204587    8.90170230469818    7.62826593605057
H         3.43731918654396    9.20493899087550    6.68353529917410
H         4.31001922289571    5.63109602463175    8.01374145573631
H         5.25119386788403    4.89172387565818    6.69700693785171
H         5.97305915518314    6.16687338540436    7.67825198555961
H         2.14210472467898    6.40897377512832    6.54366324467356
H         2.29475799143705    7.26313450660168    4.99081291749293
H         2.78774090561025    5.56908016234163    5.11716277927416
H         7.80860842621074   11.38661930999448    3.67375856697825
H         8.14516558264269    9.74156248317355    3.07651214054613
H         6.77206428051413   10.65020998096373    2.43129404927903
H         7.64728430629056   11.06497502393310    6.19469162937994
H         6.92419788029525    9.66262723242646    7.00817301626871
H         8.31179975013158    9.43501150999392    5.94528352002617
H         5.53093111471467   12.04808299039366    4.73372722779219
H         4.28393880357498   10.96469974173041    4.08242774319586
H         4.58979994134339   11.01440049666279    5.82600380955661
H         6.32673894555251    8.98309135867400   -0.15931449363787
H         5.62475443000782   10.00362169293525   -2.30470066707300
H         3.30448153055334   10.78338236083276   -2.59020575899312
H         1.68146677202735   10.55127601596772   -0.75032723627842
H         2.38853335596428    9.52884743042179    1.39395782212876

