49
CSD_code = WECNAU | q = 0 | S = 0 | Stoichiometry = C14H20N6NiO6S2 | MND = 6
Ni        3.72548725014952   -0.00007431682616    0.00011070407947
S         3.42365769887603    1.27639600108939    2.90453920115953
O         2.53778566759759    0.24222047268593    3.38679547863409
O         2.77482174684980    2.49500701815867    2.49537325774465
O         6.66745878557446    0.45223352764948    1.38586523361966
N         5.16183028511204   -1.94034355386027    0.31693947339699
H         5.20922048070865   -2.36217510837309   -0.60861692526344
H         4.98382379161088   -2.67362977076212    0.99304292816417
H         6.06993314101811   -1.53854137774879    0.53308626439297
N         2.28926754151497   -0.99169280507159    0.90373446555090
H         2.16267291631455   -0.69001504976801    1.87324970959742
H         1.44781428263145   -0.77647165298462    0.35576749792194
H         2.44461739559128   -1.99611139978465    0.88119778473842
N         4.42403333686916    0.70294571419524    1.72626456563139
C         5.70710146638971    0.76293484594272    2.09001159745388
C         5.89297620496714    1.27456424589687    3.48235946524336
C         7.09845669792382    1.42549761386470    4.14905520690602
H         8.02088399445359    1.15688943546982    3.65806000349408
C         7.07452347346490    1.92371013989921    5.44333127381827
H         8.00064664075030    2.04943613173268    5.98431774438028
C         5.87570390683569    2.26441527165108    6.05404795787898
H         5.88056769682328    2.65067965632880    7.06212619662704
C         4.66700744322378    2.11507710207109    5.38266875782931
H         3.72823342893515    2.37695912048250    5.84399273373219
C         4.70579697776186    1.61837834877661    4.10085081989556
S         4.02740692637823   -1.27587723643644   -2.90462462349825
O         4.91271392705359   -0.24121437284012   -3.38690721477805
O         4.67687592520749   -2.49424546028911   -2.49575090247337
O         0.78339343107358   -0.45276667138583   -1.38574959298577
N         2.28874601752850    1.93994272877310   -0.31697350425763
H         2.24172108941623    2.36221980953542    0.60839127332284
H         2.46652108033360    2.67289668276106   -0.99350553727675
H         1.38052716673600    1.53815024695030   -0.53263674591276
N         5.16174466893835    0.99170153191949   -0.90346602288482
H         5.28835378673236    0.68995855194463   -1.87306620797731
H         6.00346553385385    0.77663841368675   -0.35552063070032
H         5.00581465011232    1.99611141402169   -0.88127415609077
N         3.02690444692257   -0.70300852912969   -1.72613414994803
C         1.74383161527412   -0.76319980737166   -2.08988413267977
C         1.55805995106536   -1.27473137495050   -3.48229438922650
C         0.35262604182211   -1.42583894851661   -4.14903053574951
H        -0.56987726362708   -1.15750476219158   -3.65802345319710
C         0.37669365672231   -1.92387467921487   -5.44337519203337
H        -0.54939394076487   -2.04968558752136   -5.98440132885780
C         1.57558606123210   -2.26427569331672   -6.05411837342332
H         1.57081877017967   -2.65045107904834   -7.06223005354734
C         2.78424163490753   -2.11473728995256   -5.38270965868209
H         3.72309438844931   -2.37632526717498   -5.84403435998707
C         2.74530818247919   -1.61817223097812   -4.10085190378325

