65
CSD_code = WECPEA | q = 0 | S = 0 | Stoichiometry = C32H24As2ClF5Pt | MND = 4
Pt       11.48542675710531    9.35971261273057   10.74933454531352
As       10.73613473045285   11.60442706168647   10.99811166338519
Cl       11.99816481428156    7.27621340854179    9.91471300133252
C         8.77499330981451   11.53908212447577   10.70171783680339
H         8.31789604618767   11.01708493053114   11.55299733473772
H         8.36440390387685   12.55744052399382   10.67342137536007
As        9.51283048249777    9.07773280292547    9.43191463664217
C         8.48338993627940   10.78137976693355    9.41237038895790
H         8.80430768769286   11.37854110252618    8.54966422461344
H         7.41220132757126   10.57551134298119    9.30146318752736
C        11.24381446735064   12.42891166406304    9.32458418120999
C        11.94158189262205   11.65583530430662    8.40276034633658
H        12.28179029215868   10.65740614200604    8.69341049372408
C        12.22200268045911   12.15715433745566    7.14306894167944
H        12.76383045657570   11.55390727322039    6.42964777399698
C        11.80595998393416   13.43394593776447    6.80138837713185
H        12.02359026323678   13.82752969235599    5.81949737582667
C        11.11285038530606   14.21055268237777    7.71690107043457
H        10.79221974942569   15.20658406518900    7.44737072255387
C        10.82737675445009   13.70854413008461    8.97480357473142
H        10.28052715328912   14.30862364834948    9.69693649046516
C        10.92654270599281   12.98440566443001   12.34973365323507
C        11.85123188371352   14.01475898865564   12.21824320053548
H        12.46304916938279   14.06820090560366   11.32434623683311
C        11.99073537211460   14.95204760653917   13.22753113201072
H        12.70918554909758   15.75144051343514   13.12279983617025
C        11.21718099949878   14.86138218321060   14.37328771590106
H        11.32987549395216   15.59251689633828   15.15968760140365
C        10.30638107937463   13.82712134024371   14.51715506983719
H         9.71145712764262   13.75086782806598   15.41558638582231
C        10.16622484018788   12.88712063185532   13.51143214165918
H         9.46621107569140   12.06321991291992   13.62266641063617
C         9.21291682972047    8.30990488355225    7.68175883281830
C         9.25048113166960    9.09912742094827    6.53732634547617
H         9.39756339068446   10.17175153935360    6.62550460818759
C         9.11180546951327    8.51955163309472    5.28801383407522
H         9.13471164969572    9.13714379909166    4.40165971503848
C         8.95380253652574    7.14819960829965    5.17375061751590
H         8.84916486639508    6.69753809679482    4.19800976191345
C         8.94445736759027    6.35322231161401    6.30866906334552
H         8.83900496825630    5.28215971131074    6.21779327304557
C         9.07861202907498    6.92982348266814    7.55894001811133
H         9.09198387158530    6.31631388219752    8.45468251356730
C         8.35304117230267    8.04458570286284   10.58641398716892
C         7.07831729637480    7.64422120244590   10.19950858815273
H         6.73323430551059    7.85973141948351    9.19167584371180
C         6.26474264229276    6.96732319597365   11.09037025969889
H         5.27652587660842    6.65245832012496   10.78696447656903
C         6.71774263726941    6.69068629505241   12.37131496533180
H         6.08061268689833    6.15896101478319   13.06255167186705
C         7.98513752255127    7.08822325008899   12.76396159518660
H         8.34012128600695    6.86614397776389   13.75937639127349
C         8.80071679081805    7.76496708684050   11.87332311456441
H         9.81238751006603    8.06367043875735   12.16345751808422
C        13.07476580385579    9.49109096959678   12.00496904204556
F        13.57958828614070   11.65694759182213   11.18785126800232
C        13.89629361850004   10.61311023054093   12.01412244729206
F        15.74164950642674   11.87475174548281   12.80834884316161
C        14.99779071247395   10.75791166455917   12.84405942819072
F        16.37616002441207    9.84568014450772   14.54030928745515
C        15.31592404881587    9.73396242923265   13.72823943561543
F        14.78539435693391    7.62908918923416   14.65594690730413
C        14.50650198660039    8.60420551914038   13.77922864393648
F        12.61188548168155    7.43035001634514   13.05152555400776
C        13.40799396538269    8.50628920049795   12.93332522138299

