121
CSD_code = WECPUQ | q = 0 | S = 0 | Stoichiometry = C62H44As4F10Pt | MND = 4
Pt        3.98961766800431    0.64586055175966    5.40739855123057
As        2.19548511292480    0.39353773615437    3.80841690761619
C         0.65815588257769   -0.68206457446744    4.38777913380922
H         0.07502672081186   -0.05083037465802    5.06551629731419
H         1.07866513390862   -1.50855280999044    4.97276407704677
As       -0.55599946565984   -1.45087219658860    3.02619039233523
C         3.62781844479278   -0.17881750968311    8.96342716183764
H         4.61405680586535   -0.64158619748638    9.05340365203762
H         2.97031145763535   -0.56549491282294    9.74935626865646
As        2.91302953416315   -0.53917346926351    7.19380788583452
As        3.72655203906837    1.81241994086166    8.99766057561784
C         1.31726108605076    2.03228779738247    3.26570780558694
C         1.68693294311433    3.23804215526864    3.84796319284026
H         2.50132319961862    3.25664392679088    4.56783004691212
C         1.03030557461084    4.40689064259551    3.50058538953372
H         1.32617358500688    5.34325498512369    3.94967046598592
C        -0.00015697602341    4.37163516000493    2.57639500793011
H        -0.51573795070668    5.28170374678916    2.30745591832459
C        -0.36767133373459    3.17159976945468    1.98649458185708
H        -1.16628285566229    3.14712783425127    1.25973602748069
C         0.29345475572042    2.00619581703299    2.32640007667774
H         0.02804534488756    1.06147733907604    1.85263899949622
C         2.63318941198489   -0.36438321411509    2.07961018742313
C         3.12634083589130    0.46959343108369    1.08118577125776
H         3.18918528318485    1.53965547800191    1.26650562536657
C         3.53649288321200   -0.05736021632378   -0.13040076723875
H         3.92255287476431    0.59551709587652   -0.89943314170323
C         3.46413825267260   -1.42313454564010   -0.34999102514465
H         3.79524588036883   -1.83502015363227   -1.29113734100451
C         2.97817617920287   -2.26026160720105    0.64049179215110
H         2.93082922800592   -3.32594865872706    0.47235040924405
F         5.60897123932878   -1.53389440348909    6.63479354182946
C         2.56793285441287   -1.73422335819145    1.85334375865674
H         2.21371188584273   -2.39684661220038    2.64064361056609
C        -1.03421382909446   -3.08735848608667    4.01587641363124
C        -0.88373258191680   -3.27723314010817    5.38259089000006
H        -0.47482097172481   -2.49467880568598    6.01198087672999
C        -1.24745203723274   -4.47376726335719    5.97506356624690
H        -1.12034449843159   -4.60320709328898    7.04068773970135
C        -1.76962879825669   -5.50073561903457    5.20887034717109
H        -2.05111267536353   -6.43430396963905    5.67331984267328
C        -1.92851353132454   -5.32621698900311    3.84421408493028
H        -2.33516937490903   -6.12434594006800    3.24017777492430
C        -1.55976575317446   -4.13002702211672    3.25663097421464
H        -1.67574285729643   -3.98630492261877    2.18553636352169
C        -2.14101517542086   -0.38717879825026    3.50529338385705
C        -2.59707283776343   -0.25568107198021    4.80866363635670
H        -2.10195780095310   -0.78443510919797    5.61421150439925
C        -3.69173549970594    0.53856951686263    5.09604237568864
H        -4.03663418993332    0.62951775920006    6.11623680649736
C        -4.34744163210623    1.21154409077372    4.07922841732258
H        -5.20086227789182    1.83387858948239    4.30480288713519
C        -3.91107835252395    1.07756757417867    2.77220323790757
H        -4.42571041832555    1.59420053925713    1.97480855843494
C        -2.81685567285191    0.27984420461424    2.48926033063166
H        -2.47351671563851    0.16422305085655    1.46535603085979
C         2.62112313451364   -2.45769638149636    7.06613261117756
C         2.14544811391009   -3.23737304595174    8.11266552364448
H         1.97355102119991   -2.79003439031805    9.08751432194628
C         1.90556214147420   -4.58765643274524    7.91864250601455
H         1.53324568787871   -5.19141989809049    8.73409293176951
C         2.14408715127611   -5.16525313516285    6.68266337570634
H         1.94514397377622   -6.21565458217114    6.53232022221247
C         2.65470926195472   -4.40219487301357    5.64485165065810
H         2.86511501985603   -4.85948074116529    4.68933963032985
C         2.89954028937352   -3.05530462004119    5.84033688932704
H         3.33364627943331   -2.44547690228732    5.04666321749610
C         1.15155761550204    0.23843395204452    7.47110356501671
C         0.08364977406164   -0.37711153493117    8.10772597308828
H         0.18867515785775   -1.38731047653667    8.48931289286856
C        -1.12325464266052    0.29063547761564    8.24206364100668
H        -1.95220616671734   -0.19378283460506    8.73831419603932
C        -1.27220866324673    1.57088389763783    7.73543490726331
H        -2.21738598324273    2.08312257741158    7.83437890683433
C        -0.21089234420509    2.19388834240062    7.09828177998724
H        -0.32589135324206    3.18913324184067    6.69431685484424
C         0.99635281956396    1.52952607912931    6.97391567449304
H         1.84738614793606    2.00445606606589    6.47650491513418
C         2.36521460708204    2.04005218805622   10.40703460822545
C         1.27851150475861    2.87158119466032   10.16360671620682
H         1.23515473476419    3.41679206792580    9.22642527613052
C         0.26762387847340    3.00568595056878   11.09957676019051
H        -0.57627752425527    3.64898512420136   10.89573022073483
C         0.34013218279340    2.31624987585772   12.29757590317689
H        -0.44718320951189    2.41665717175863   13.03035369884377
C         1.43129177570557    1.50434145528963   12.56109091306032
H         1.49817137867108    0.97780940597028   13.50276221610270
C         2.43564552346823    1.36849526169525   11.62039749980890
H         3.29307694488567    0.74118937092219   11.83741277681756
C         5.28891540814896    2.08876755868869   10.15430738500712
C         5.71174573419024    3.41037141763013   10.27947249208578
H         5.15449522351802    4.18430597839182    9.75810693100411
C         6.82502291110661    3.73122099588912   11.03318545757939
H         7.14636140130059    4.75888266009432   11.11375734691661
C         7.53976131290739    2.72861268167545   11.66809337096884
H         8.41995693395237    2.97102180395048   12.24424258889297
C         7.12854224645202    1.41249512045940   11.55434066677031
H         7.68575156811709    0.62671655224960   12.04439706269992
C         6.00853491447285    1.09630513706071   10.80373080217918
H         5.70924515611503    0.05716923848762   10.72656061929301
C         5.63777601311957    0.81924928141596    6.58713357982541
F         5.66153625761979    3.16029133129544    6.84537291264775
C         6.26612626177841    1.97358551607066    7.04347429287627
F         8.03780586110976    3.09586910413318    8.14860630965159
C         7.46265390740254    1.95481120530316    7.75007834787739
F         9.20525740893119    0.69970468408933    8.74958244641559
C         8.06040657307114    0.73762978606181    8.05593771145984
F         7.96720200675699   -1.62846166110221    8.01060039344364
C         7.43774125355656   -0.44387740703890    7.66783352602854
C         6.25521405924593   -0.37389169881163    6.94674260010578
C         5.07085045830611    1.44957209106505    3.87350563099550
F         5.23271711227377   -0.83989540922290    3.39504786731520
C         5.56646064575059    0.43552346721246    3.05851606422533
F         6.76110261525739   -0.37110556650153    1.17029952320338
C         6.33153362549162    0.65130216834259    1.92477264537711
F         7.35867644903582    2.20996913146938    0.46718172901159
C         6.63203496879181    1.96093902702637    1.56555414689212
F         6.42143086276827    4.27339241275630    1.98725124996274
C         6.15356694463308    3.00854694165187    2.34294248995569
F         4.91793264147671    3.78832024003082    4.17494576317055
C         5.38566899634120    2.74223767437394    3.47326638620517

