33
CSD_code = WECQED | q = 0 | S = 0 | Stoichiometry = C10H12Cl2N4PdS4 | MND = 4
Pd        3.75649645195360    6.35253885285286   11.00388852724556
S         7.15964791363874    5.90179682307020   15.76495940569632
Cl        3.04986791278609    4.71675603386832   12.43504414574122
S         6.78097210001024    8.77408046280973   16.48765082692949
N         5.74591245631385    7.62478477406055   14.35366440638831
N         4.62344573723206    7.24828372743904   12.50481514374881
C         7.81847093716306    8.05382331615218   17.77653538970237
H         8.03445755807946    8.85137201739798   18.47993735945526
H         8.73287170716528    7.67571342084436   17.32823122028494
H         7.27589037282714    7.24722687296077   18.26138279271005
C         6.53162675991241    7.37899881203929   15.46415833765585
C         5.21260166565108    8.82799030293951   13.94731541707689
H         5.36912365374288    9.73460816213280   14.49355709324514
C         5.35426930698847    6.69452292502853   13.43721004322381
H         5.60316703758165    5.64990778627724   13.50524325562979
C         4.52319963442332    8.58246538508741   12.80497283490452
H         3.98099963330682    9.26081588512943   12.16960331203265
S         0.35355595859624    6.80266597497360    6.24248262851025
Cl        4.46309020831473    7.98819973260219    9.57255475542266
S         0.73253306934749    3.93034237843248    5.52010798493391
N         1.76734816279137    5.07993833928711    7.65405530984182
N         2.88955712566795    5.45664896273669    9.50302879592261
C        -0.30492575011156    4.65037132391305    4.23106255547151
H        -0.52104268337298    3.85264817852369    3.52789850568167
H        -1.21926027939053    5.02872489311769    4.67929505310383
H         0.23772894700194    5.45675752898054    3.74594808829256
C         0.98178566430408    5.32558383978394    6.54342117338218
C         2.30067398125690    3.87679486918236    8.06056546413249
H         2.14428555756787    2.97012925813781    7.51436261560973
C         2.15878171927280    6.01028420013723    8.57051860017434
H         1.90981738590470    7.05487616521457    8.50238486727387
C         2.98996492214944    4.12245582133347    9.20294802242357
H         3.53218517192729    3.44419297355783    9.83839606815478

