80
CSD_code = WECSUV | q = 0 | S = 0 | Stoichiometry = C32H36N4O7Zn | MND = 5
Zn       11.44920952728212   10.98214116781501    2.17601001712037
O        10.27767144680630   11.75033691253463    3.82806559961777
O        10.10132226655552    9.69197065276693    3.12652820536015
O        14.51135499435700   13.19205114246184    6.62477282663426
O        10.91680958273526   13.43091183560676    1.77080802398097
H        11.84110932498623   13.69436489901510    1.79571068957170
N        12.79655082273761   10.51246871016361    3.85791110253751
N        13.86496420984620   11.78513910868244    8.26330304843282
H        13.36589396813796   10.95416877823973    8.52534372640021
H        14.02147024704973   12.49169795912730    8.96360554386927
C         9.73233335253983   10.62792811298488    3.86576256640866
C         8.59421603722099   10.40017736114701    4.81562104251542
C         7.29880727713826   10.32858804368317    4.30460658660000
C         6.24484609514330   10.13178150555590    5.18288068045609
H         5.23640856796202   10.07934406132043    4.79662389410179
C         6.45562291707815   10.00176983634148    6.54926187042287
C         7.75294882031821   10.07544441160713    7.03329051908606
H         7.93016992199095    9.97760360938369    8.09556542024749
C         8.82962740830217   10.27822027095967    6.18177961871287
C        10.23045275997843   10.35946118127730    6.71264457363558
H        10.23747897716403   10.28989412290953    7.79851257182467
H        10.68696463033633   11.30111389238601    6.41067595944558
H        10.83448328186633    9.54992481567436    6.30174529505246
C         7.06594853820844   10.46785407954593    2.83101244026667
H         6.00238127691483   10.48847990845710    2.60480187617144
H         7.52441955494249    9.63251611849647    2.30330199311307
H         7.52777343077426   11.38109240398662    2.45774157012727
C         5.29695704980555    9.77275116980527    7.47301658295254
H         4.47828653419517   10.44960423435476    7.23627307990718
H         5.58854704832560    9.92301622257823    8.50946521023915
H         4.92783172646711    8.75264793450282    7.36508441628580
C        13.15681412491401   11.39669399303610    4.77086236940947
H        12.97820214360478   12.43806583147054    4.54508079879916
C        13.72638288186882   11.03753197036966    5.98932567888583
C        13.95978255209340    9.68784496653917    6.23328625784539
H        14.42785164218509    9.36366870218656    7.15218514189382
C        13.60745771156561    8.76958705347185    5.25879239820372
H        13.78194806241206    7.71464546888802    5.40226645371675
C        13.01724111979290    9.22633705068140    4.09002599238193
H        12.71341953740367    8.55214615320134    3.30301872370506
C        14.07372997751607   12.11675925316786    6.96512734962035
H        10.57328421810313   13.52403012831418    2.66465059042423
O        13.14915646350256   11.77668795300904    1.29349253145391
O        12.70954410538616    9.65136809018239    1.06238598158275
O         9.68665251518174   13.54883091567962   -2.80127910490277
N        10.24145049189961   10.80388051445760    0.39692989666196
N        10.51733709635580   11.94113856508765   -4.14593366166239
H        10.93074496785596   11.02948439609026   -4.22652731033109
H        10.66883371527722   12.60527308602622   -4.88750954411933
C        13.43750604776732   10.64098644521704    0.85363768612400
C        14.69909833408515   10.47275879345995    0.05926746940087
C        15.92968438551646   10.51375901603200    0.71374072541261
C        17.08846153879829   10.35020322047600   -0.02954004062569
H        18.04619283704471   10.37855369990335    0.47138656984597
C        17.04657413449814   10.15459816006312   -1.40317045962596
C        15.81139055837772   10.11981468060307   -2.03256162840453
H        15.76473400145156    9.96960321583842   -3.10251185990907
C        14.63265418199511   10.27342635418076   -1.31726215835553
C        13.30307020622672   10.25088618646842   -2.01160656731384
H        13.41130149921818    9.91305413383472   -3.04058032495557
H        12.86772918084307   11.25096883702859   -2.01033604168907
H        12.61923145256601    9.58762403190620   -1.48492371497036
C        15.98826824242736   10.71418497015274    2.19787868272841
H        17.01455809395009   10.84351770888444    2.53331767822551
H        15.55809989004145    9.85200666694710    2.70900711134646
H        15.40695662868174   11.58929104095858    2.48156120575649
C        18.31401447890178    9.96342399016631   -2.18109601731469
H        19.09568955939152   10.62432009474166   -1.81272289237086
H        18.15550058004318   10.15962745648156   -3.23864857566143
H        18.66587585878255    8.93682052756864   -2.07422529835850
C        10.27229250567778   11.68084145434932   -0.59368756800308
H        10.59020360800981   12.68270785358619   -0.34649465815914
C         9.92603637146025   11.35337597427597   -1.90194090516061
C         9.48802925879961   10.06046026061616   -2.16712974740947
H         9.18531465192376    9.77199841304177   -3.16397584748612
C         9.42058720779888    9.16024650212548   -1.11753713693284
H         9.07366111988371    8.15093903061687   -1.27460713603478
C         9.82172464402387    9.57004960883292    0.14339998827609
H         9.81346192269590    8.89622545736625    0.98635440449543
C        10.02540209529522   12.40048765874353   -2.96730003761138

