61
CSD_code = WECXIO | q = 0 | S = 0 | Stoichiometry = C29H26ClNO3Ru | MND = 9
Ru        9.46145382521079   11.37910143706265    7.98688120704836
O         8.85908841098056   13.04393673795982    9.02066754358782
O        10.47930300224246   12.61424055842482    6.69744439535493
O        11.25483783798030   16.84093972132649    7.48963204876272
Cl       11.39188017092555   11.56693789874095    9.27520746190615
C         9.37539583133684   14.17336545443802    8.86251204819686
C        10.37166983903275   14.62193034071469    7.94591361023678
C        10.89882970686213   13.78937331220237    6.91811681268525
C        10.56162934545315   16.06093926155529    8.11691579931102
C         9.65578596902558   16.45773781386742    9.23655147909905
C         9.46062042265293   17.68787444983190    9.82642883346370
C         8.54317466916361   17.77666620706427   10.86971431660224
C         7.84431327100424   16.66108227041046   11.30120635379336
C         8.03654263696430   15.41910966235097   10.70413113843692
C         8.94728839119418   15.33490263580723    9.67135165583623
C        12.94721758071743   15.14397327509942    6.20863475102227
C        11.92005162923616   14.25091608339479    5.99360142049500
C        12.12602470843031   13.72010070050134    4.67425699484361
C        11.44692257809103   12.79496936950975    3.88653731509545
C        11.92847408140234   12.52642109510161    2.62379788413762
C        13.06445856826119   13.16848966521315    2.12705247464100
C        13.74964362380216   14.09757148745122    2.88216066521571
C        13.27252459022147   14.36609136249748    4.15835255371996
C        14.91371718766922   16.04376806028016    4.99591629313035
C         9.48754758416766    9.53540535845908    6.61405281168521
C         8.37369948226929   10.34655576590036    6.25827424166160
C         7.40839057913456   10.71436935956962    7.20209641582216
C         7.51884566961180   10.28117119669875    8.55520281971729
C         8.60081083843630    9.46095393084520    8.91350066435031
C         9.59011969701566    9.11737269444834    7.95479533964011
C        10.50411371859481    9.11884450109486    5.57660841720317
C        11.90277585725960    9.59769742071608    5.97408300572863
C        10.47310712982442    7.60129108280244    5.37135978689634
C         6.44355659366014   10.63131731263952    9.53870473302038
N        13.74839375742860   15.21738614876924    5.12348281902353
H        10.00951741781315   18.55188565876856    9.48453401708819
H         8.37457008439544   18.72868283754683   11.35149578072508
H         7.13964633903690   16.75615914706014   12.11447749575293
H         7.49680837586047   14.54650082737682   11.03888376169326
H        13.16868226389270   15.70982228171236    7.09039335738218
H        10.56823309889107   12.30118660139846    4.27114651934354
H        11.42114181952732   11.80612148435768    1.99807377744090
H        13.41048795540483   12.93258064361428    1.13143441600832
H        14.62462007919362   14.59576541317447    2.49230089904863
H        15.03142921325851   16.63930932487197    5.89874124306556
H        15.80665190637265   15.42981221473386    4.85287971712117
H        14.81110411609253   16.71561877537010    4.14063378905495
H         8.24564259874644   10.64119262852157    5.22160764203707
H         6.53921196243263   11.28565257509801    6.89719233409839
H         8.66875807325585    9.06098838135643    9.91909881456223
H        10.40279178415436    8.46556667703410    8.25587940143065
H        10.23785532207090    9.59883936626854    4.62799266814309
H        11.88087888535136   10.66199185966335    6.20653264013866
H        12.26452606425399    9.06570429479406    6.85024310878610
H        12.60092714301831    9.43576558655187    5.15653542044022
H         9.47594644444638    7.27062300468221    5.08633965573617
H        10.76258903529789    7.08081158255889    6.28108189304873
H        11.16779560957895    7.32264050284073    4.58305652685402
H         6.20157828762675   11.69103253943708    9.47393591827708
H         5.53940542792689   10.06176369557858    9.31747487544281
H         6.75859190685181   10.40737846292401   10.55498821589389

