72
CSD_code = WECYUB | q = 0 | S = 0 | Stoichiometry = C40H26AuF3N2 | MND = 4
Au        7.23882827814472    4.15370950923153   15.01325383763525
N         6.92139195716803    4.46017792457143   13.00311793500080
N         9.76747365928512    2.16014227188731   10.86910369354079
F         3.84880934159182    6.66166892648330   11.47609460714372
F         5.17095909819650    7.46650012524004    9.98080689821909
F         4.15076696002573    5.61036948499724    9.62340380140205
C         4.77752820764729    6.32673855948344   10.57535582688571
C         5.93168805361213    5.17318690141459   12.48926444264968
H         5.12994533833634    5.42845679276104   13.17006569320413
C         5.93115531251984    5.57395503875410   11.16700823142970
C         7.05498822157247    5.29747966708438   10.38225077104050
H         7.11603150456460    5.67333156584960    9.37238207023562
C         8.07292679967230    4.55240641768774   10.92454401199308
H         8.97271734937086    4.37392754134622   10.36150099152118
C         7.96272336402581    4.06726612377371   12.23865787986876
C         8.94450473986327    3.24659976324504   12.90550161948763
C         8.91228078393190    3.28587242854486   14.31931152978551
C         9.94665144786785    2.67900757205439   15.01026936619264
H         9.95165150146285    2.71478583678637   16.08962895264359
C        10.97445007646392    2.02827473363270   14.33855695731142
H        11.78393775585169    1.58063873889362   14.89660134445329
C        10.93260467803628    1.88227579799370   12.96653040105195
H        11.67991918475953    1.29423228474671   12.45419291963668
C         9.89714106252149    2.45309884641201   12.23021448071738
C        10.91206980878408    2.09301224883807   10.06378215329385
C        11.93838546712355    3.01936861563473   10.24718205832006
H        11.84198611149091    3.77439347549252   11.01470934777747
C        13.06924168689864    2.96891093576959    9.45564997495772
H        13.85686472636457    3.69204294454194    9.60656139153389
C        13.18997989606907    2.00527088658964    8.46790074066116
H        14.07237835309096    1.97166863957347    7.84763028917331
C        12.17250091156532    1.08341052264820    8.28292383892643
H        12.26313421549494    0.32355452964982    7.52106057850697
C        11.04136929722403    1.11922517977051    9.07533747361402
H        10.25549594333274    0.39104842385379    8.93897423976338
C         8.50962851534763    1.80631587731179   10.35914445303820
C         8.15846311465058    2.13519204262843    9.04984355477615
H         8.87514153459803    2.63435239538284    8.41350656399668
C         6.90095176517091    1.82724620631250    8.56743639141040
H         6.64179961223174    2.09123559593640    7.55304406373689
C         5.97286296959593    1.19812954352516    9.37959129486255
H         4.98771014587222    0.97003319468947    9.00355983047230
C         6.32113615341658    0.85760296924938   10.67669962353677
H         5.61023841171130    0.35200760893277   11.31313933434791
C         7.57944238589251    1.15022745880366   11.16442422510656
H         7.84744014699241    0.87146522558307   12.17323228073383
C         7.65412404474877    3.85772918386968   16.83206946918272
C         7.89661653240165    3.67576785856276   17.99821983929454
C         8.20279745147487    3.44911676189441   19.36325099327583
C         8.88635148032592    2.29714771377725   19.75154702317136
H         9.17845932195012    1.57568169762266   19.00183910858702
C         9.17986339859617    2.08430533591464   21.08482897843582
H         9.70872520712128    1.19004538832840   21.38236766426622
C         8.79888028224502    3.01283644412348   22.04030957207386
H         9.03077637712068    2.84302917523463   23.08159762335608
C         8.11931388727928    4.15897640010644   21.65869240417229
H         7.82129776954489    4.88246109333480   22.40394367040827
C         7.81973210753575    4.38035907018854   20.32841394365871
H         7.28960611776936    5.26986396686795   20.02085542712546
C         5.57902916063319    4.99215681084688   15.56703117339016
C         4.54413593956581    5.55109801277728   15.84353261849475
C         3.32773247535923    6.20844594746443   16.15778932739384
C         2.88453315522279    6.25918659109230   17.47965597873907
H         3.47787244243091    5.79118691294998   18.25220356396408
C         1.70077332377642    6.90046003520107   17.78800558293599
H         1.36105606807720    6.93714216557813   18.81341030606592
C         0.94814493844939    7.49619304188684   16.78801955274022
H         0.02261386011103    7.99678450645927   17.03292732861288
C         1.38439836241823    7.44893109516652   15.47378896058601
H         0.79922960034316    7.91298523061128   14.69274506734447
C         2.56710121004729    6.80985442639630   15.15453268818770
H         2.90623963652187    6.77513775970953   14.12827016890455

