74
CSD_code = WEDBIQ | q = 1 | S = 0 | Stoichiometry = C28H43N2Ru(1+) | MND = 10
Ru       27.52328509505739    7.44607495700356    7.66808874504375
N        28.94741103408200    6.03653794424440    8.33083265265099
N        28.85655489326042    8.01982219738490    9.20120429953489
C        25.39712083996623    7.68779111870113    6.90905154018649
C        25.60602223890850    6.29476790474437    7.18702305393419
C        25.88093042403488    6.17261211759849    8.58312621750274
C        25.82389963261679    7.48526454070576    9.16947533789664
C        25.51005742445808    8.42208971244997    8.13751091078720
C        24.77202169300563    8.21888264857137    5.65844489950168
H        25.07868074343234    7.66002691354627    4.77694619067922
H        24.99372246212889    9.27279764932799    5.50549893302600
H        23.68794348691670    8.12131057071556    5.74741439283943
C        25.22928958131885    5.19580229519346    6.24596624317719
H        25.62763339659270    5.35923772172318    5.24686510535611
H        24.14062505993277    5.16853784180232    6.16716171372714
H        25.56684354699631    4.22586171926410    6.59632244686099
C        25.88366849339575    4.92732949490703    9.40961877679752
H        25.83493360399253    4.03448784429303    8.79438361763968
H        25.00747856648921    4.93665886319895   10.06089108755893
H        26.76686260408574    4.87302019243926   10.04433270016273
C        25.76396656752746    7.69811184025396   10.64767097384942
H        25.65709587589474    8.74794632044473   10.90134927597590
H        26.64999760903343    7.30260763232197   11.14195476734658
H        24.89713804390027    7.16555975049177   11.04407553790720
C        25.01534590596040    9.82190493131589    8.31423875179728
H        25.27136462568823   10.22394427319744    9.28898503599348
H        23.92722926176459    9.81569237865177    8.22457077049495
H        25.40444510935433   10.49299924183307    7.55149057775832
C        28.12665640763203    9.26687888062397    6.54781840085487
H        27.28893215799778    9.52337774143656    5.90428196166333
H        28.61388616942211   10.12901584414314    6.98406746713205
C        28.92157017447459    8.16729371365370    6.17682018058700
H        29.98972942279633    8.12140089810051    6.39416107810219
C        28.22797462644432    7.09292143189765    5.59128683151157
H        27.39032362427713    7.32841745073254    4.93964154896489
H        28.79474104142388    6.22935205751995    5.26885807375907
C        29.47868283230953    6.85334856816339    9.22481236370572
C        29.46609311196273    4.72559345350265    7.94524114941047
C        28.41363653164374    3.99937273228473    7.09730994170524
H        27.65320401145242    3.56561097803838    7.73795156943216
H        28.88441666455980    3.19244876920347    6.54284741746237
H        27.94074223229333    4.67212649713885    6.39221068587770
C        29.76343061133105    3.81530605165478    9.14981771094158
H        30.69883353232022    4.07220930773109    9.63452930720306
H        29.84112788541735    2.79008696954641    8.79681852287021
H        28.96150458246912    3.86242917586697    9.88191654686549
C        30.75515458183211    4.89005002574219    7.12293781462144
H        31.54001016022636    5.33403038539836    7.72682456609733
H        30.59094174641884    5.51656019896923    6.25040966659582
H        31.09948528414775    3.91542921459838    6.78815632844504
C        29.25774214734322    9.22515663668024    9.92416208781507
C        29.52152213744990    8.97277061148728   11.41908575185701
H        30.48987890295725    8.51622167760442   11.59159888487378
H        28.75029416748543    8.33915274515869   11.84909285443993
H        29.50564439787308    9.92744204854205   11.93872151581712
C        28.12438830649061   10.25646704345822    9.84850328763411
H        27.68436671649561   10.29033039178844    8.85925419901227
H        28.51147081014141   11.24269931577322   10.08881191434175
H        27.35238052375683   10.01521352949979   10.57152063139026
C        30.52803689201451    9.81943514508634    9.29304243681782
H        30.38815242960458   10.01729733076627    8.23373968766882
H        31.36723807058834    9.14168334518363    9.41202722017909
H        30.77797453891155   10.75346255126767    9.78863287850822
C        30.58819250809128    6.49742297875557   10.15205387429772
C        30.29794315690291    5.93635347540063   11.39369152029149
H        29.26965602671077    5.76234339436547   11.67530962055668
C        31.31710424770071    5.60200791305951   12.26569817716328
H        31.08040631923466    5.16800616323949   13.22474566249551
C        32.63763443472543    5.82354397518034   11.90926465177330
H        33.43267890970291    5.56299156400940   12.59003923918269
C        32.93401432826374    6.37993688744643   10.67731273806280
H        33.96046373661991    6.55476246246310   10.39364104261093
C        31.91587383949236    6.71624861000837    9.80052691344384
H        32.15959723879035    7.14990924150998    8.84100951995682

