47
CSD_code = WEDGAO | q = 0 | S = 0 | Stoichiometry = C20H16FeN6O4 | MND = 6
Fe       -0.26782901682000    3.15981512505657    5.95068824406247
N         1.45645413689760    2.39921310437091    6.05203717494328
C         1.93379159615978    1.90996394937382    4.89540258853511
C         3.19323823861420    1.32953346892645    4.83044635916995
H         3.55822446605884    0.93772708036889    3.89179591562387
N         3.98141389916786    1.23366288614976    5.88907571096509
C         3.50307102451519    1.71617999110746    7.02768662860959
H         4.14601757680030    1.63346461636895    7.89248021628434
C         2.24863228101237    2.29695838789598    7.12095978582018
H         1.86059590925647    2.68751522535879    8.04915935779546
C         0.97651869213957    2.01647236274599    3.71558161671244
O        -0.14089818715122    2.53130310444369    4.04344638942638
O         1.30880201629056    1.61808530005714    2.61418878507431
N        -1.04995988700553    1.55694148026374    6.56814522089391
C        -1.31725422607551    1.52144238749654    7.88428036576218
C        -1.89618567896486    0.40177321145020    8.46616748792786
H        -2.10105656729672    0.39091504825019    9.52713939837603
N        -2.21412684850687   -0.67375889156097    7.76383953103171
C        -1.94382460404260   -0.63350734027941    6.46641125679540
H        -2.19861074392400   -1.51474621091188    5.89492954270858
C        -1.36508907247813    0.47011658562118    5.86088521278085
H        -1.14547179869435    0.50032093335398    4.80469711814648
C        -0.89959879432481    2.76833260835081    8.65273332865950
O        -0.33280527000171    3.63012691578721    7.90640040445347
O        -1.10193796683434    2.85091601599171    9.85051584233936
N         0.52550180116741    4.87517230151613    5.45673001195198
C         1.22725213410672    5.56827950685388    6.35246690756477
H         1.28446278423599    5.12882001225941    7.33577804138153
C         1.82242934075005    6.78253526313849    6.06362955457269
H         2.38054313357603    7.30370606419195    6.82512275859905
C         1.68880902692953    7.30909405228734    4.78745388109374
H         2.14566274672126    8.25117830788320    4.52564793229327
C         0.95067070842069    6.59284501030212    3.85759724161750
H         0.81503164906697    6.95894171887732    2.85240021878897
C         0.38685525432417    5.38722028979733    4.23441424271577
H        -0.18113548228284    4.78815618423663    3.53835900157027
N        -2.04067997304838    3.92801552735785    5.68632786924658
C        -2.48641784689602    4.93480431641802    6.43702343720350
H        -1.81513629125840    5.27159168394448    7.21272147596188
C        -3.73513122411923    5.50353995472936    6.26416726210809
H        -4.05049288085868    6.31220600990243    6.90385126550328
C        -4.56450296454179    5.01492575452289    5.26651489139623
H        -5.54587836249750    5.43395434960668    5.10597220250041
C        -4.09727561389478    3.97296152976847    4.47913815969622
H        -4.70121111218679    3.56037332013463    3.68693944736722
C        -2.83572793520744    3.46264230207148    4.72401435257571
H        -2.42054006729032    2.66806919417034    4.12463636139299

