65
CSD_code = WEDSON | q = 0 | S = 0 | Stoichiometry = C32H26MoO4P2 | MND = 6
Mo       -0.21661471382470   13.46419445735032    9.51975309183388
P         0.55625632304122   14.47106928297045    7.49448929261595
P         1.83512711664992   14.15602184699569   10.51373207850718
C        -1.23725401958944   15.06718094305825    9.98664299663457
O        -1.90432572048759   15.94725218670557   10.27658894744054
C         0.75144563004462   11.81268760160461    9.12807651780341
O         1.30877928132534   10.82706009074985    8.96076481367823
C        -1.83619106513973   12.82014894510390    8.65814564195142
O        -2.79912124303526   12.45085014329516    8.16470893354742
C        -0.80158292999207   12.65690180130174   11.18966776387928
O        -1.13617819269957   12.16303532972728   12.16384394192278
C         0.07016022699557   13.73729544386449    5.89983057845544
C         0.06894516444396   14.49441030448809    4.73065542216481
C        -0.27722921347037   13.91069709765989    3.52675170004983
C        -0.61761050285856   12.56805488966618    3.47677216465539
C        -0.60820367389961   11.80824000969945    4.63425732046351
C        -0.26495904604254   12.39035249446827    5.84191545859860
C        -0.06434246548442   16.15928013645302    7.25796721604576
C        -1.44227948231914   16.26308787993900    7.06883149266396
C        -2.03994365687273   17.50242030751842    6.95960701668686
C        -1.26920098402398   18.65227423479283    7.05204074878636
C         0.09638373276288   18.55507054509622    7.25295840083017
C         0.70171109831838   17.31325706024084    7.35756045672378
C         2.37750952366941   14.56976778055809    7.13571151305768
C         3.24914511088678   14.94317120877667    8.29470022069883
C         3.95903791914990   16.06433560357959    8.32002781505826
C         3.31479037589363   13.95784919699797    9.42062454297094
C         2.19525572842694   15.82977635880711   11.12555644921194
C         1.46672046557539   16.90033276229126   10.62661649825783
C         1.77077078013451   18.19344423669583   11.01358997069105
C         2.80403789041550   18.42144225836360   11.90617600580277
C         3.53473357681344   17.35552687832930   12.40932290266786
C         3.23749284601338   16.06370025046887   12.01925743947801
C         2.25370775464777   13.14523983835132   11.95681468361055
C         1.59585426481569   13.46619433942729   13.14345059777421
C         1.76180436709985   12.68241925417777   14.26748749441776
C         2.57643975974139   11.56146999425826   14.21329840429446
C         3.21965192986657   11.22893830346419   13.03367458856959
C         3.05905115675270   12.01419322789804   11.90444588075599
H         0.32604380845531   15.54486432839334    4.76992491587731
H        -0.28396400548647   14.50430913858638    2.62408623512039
H        -0.89210044892179   12.11594758867191    2.53520992036919
H        -0.87312693070445   10.76187826689129    4.59793291421606
H        -0.26282181712136   11.80042245073633    6.75020388654297
H        -2.03554015030780   15.35634453996887    7.00919168645885
H        -3.10694484189679   17.57641152516094    6.81004981878120
H        -1.73654240365675   19.62277124282456    6.97415882139311
H         0.69700143410798   19.44985428992115    7.33388821044148
H         1.76402887499222   17.24578529369083    7.53573586974890
H         2.62901558101920   13.55160774492085    6.80474735956683
H         2.52215671214023   15.25145900179054    6.29004704956997
H         3.94930751996136   16.77137510045990    7.50717239069709
H         4.59184826531683   16.31551298299879    9.15441077538755
H         4.21472875468842   14.11782502472539   10.02445371988271
H         3.30217729872210   12.93323275440242    9.03338284672066
H         0.65908079513049   16.71537541027608    9.93030115369871
H         1.19844670059160   19.02030973772568   10.61908255891588
H         3.04170537630836   19.42937723726377   12.21312717844062
H         4.34033973607091   17.53462054172898   13.10681566397845
H         3.80588981699467   15.23087192637378   12.41283318568894
H         0.95186256693585   14.33858839579842   13.16746125792000
H         1.25108931829043   12.93744955531565   15.18432575023177
H         2.70242638824827   10.94299303741926   15.08954233632351
H         3.84646949071761   10.35002686341518   12.98919737689802
H         3.55824704567432   11.73704149532673   10.98640011389603

