51
CSD_code = WEDVUW | q = 0 | S = 0 | Stoichiometry = C24H18CdN4S4 | MND = 6
Cd        4.07959289407595   12.38589124004102    0.94289643912873
S         2.20125989493285   10.62957411232864    0.49780822846224
S         1.48497487208533   11.05974082569227   -2.41980897604716
N         2.73561131483671   13.79994719505048    2.29155368787866
N         2.72789665181493   12.77089577001416   -0.91895545701559
C         3.00698429262366   15.09908144633991    2.36545256397231
C         2.11452844881768   16.02264716388904    2.88592792038700
C         0.88669043712682   15.57583815451181    3.34789752769204
C         0.60416177795863   14.22114656931204    3.27124647095814
C         1.55779798328819   13.37157836164265    2.73416286560354
C         2.09771213214861   12.52159943402795   -3.15246943238735
C         2.05970224100578   12.91071413651228   -4.47745051249681
C         2.65506809572654   14.11082312488903   -4.82190147028656
C         3.26302630579655   14.91104156324967   -3.85939154482929
C         3.29640820508859   14.53142401600032   -2.53351436505968
C         2.72037691553505   13.31720285923149   -2.17035497433436
C         2.16933074672332   11.58885407421388   -0.88731733816707
H         3.97777925542672   15.40667118940898    1.99357699361439
H         2.37725352235868   17.06809874080126    2.92443198961858
H         0.16530355651932   16.26785476550961    3.75687131099740
H        -0.33881179917821   13.82802846066907    3.61726960290393
H         1.37258961953600   12.30681843002478    2.64860431974292
H         1.58613823625208   12.28587051508107   -5.21820138075907
H         2.64858224934866   14.42866979896046   -5.85344928150145
H         3.72195127608685   15.84234935634674   -4.15576581577155
H         3.77079388727343   15.14158654464777   -1.77803803171168
S         5.95802964525751   14.14214301747204    0.49780658167034
N         5.42354841675057   10.97215097145389    2.29192007358264
N         5.43093921854651   12.00116195845347   -0.91924451869067
C         5.98977589399483   13.18307288919458   -0.88744593289909
C         5.15373469160433    9.67262290072038    2.36395962306757
C         6.60017081027079   11.40152874614876    2.73676616939466
C         5.43821600038975   11.45505144717415   -2.17073225987360
S         6.67364750817166   13.71250587074043   -2.42006357592892
C         6.04663417955581    8.74959980510123    2.88464837296640
H         4.18384922973992    9.36418322305999    1.99043124042967
C         7.55409040669325   10.55257881146334    3.27426169563562
H         6.78415279996748   12.46663021788372    2.65263889801362
C         6.06080349423905   12.25073796167927   -3.15282643660826
C         4.86205250339241   10.24091328148485   -2.53395249233222
C         7.27321369743610    9.19744182981929    3.34891495392229
H         5.78519166617241    7.70376252555630    2.92154741266713
H         8.49605922146585   10.94648631504019    3.62211315195175
C         6.09863014956744   11.86175552850500   -4.47785176482826
C         4.89527051320941    9.86142016356910   -3.85986801433036
H         4.38776148337054    9.63068894865124   -1.77846788252913
H         7.99495815132879    8.50593297659907    3.75815564995217
C         5.50317065784236   10.66170531382280   -4.82235668731798
H         6.57211011331697   12.48664690448347   -5.21861748839831
H         4.43626422131592    8.93016650070667   -4.15627991396874
H         5.50952231322804   10.34396404280389   -5.85393819612890

