69
CSD_code = WEDXOS | q = 0 | S = 0 | Stoichiometry = C30H36CoOP | MND = 8
Co        2.06049287494072    1.35722838831873    4.01804065808647
P         1.59631280977014    3.15714587655710    5.26372230524461
O        -0.15175929844603   -0.25587023519581    4.72324319920963
C         1.48377016348955    2.59661881375720    2.40458724634536
C         0.88739700839535    1.32486367040687    2.25548064961978
H        -0.16941014291825    1.12675016456887    2.17631823454013
C         1.92286768288075    0.37626719505784    2.14032134153020
H         1.80423264170923   -0.67235234531624    1.91614636593841
C         3.16275438383157    1.08432135289682    2.13612357715923
H         4.12192482239726    0.64193396185770    1.91817751956733
C         2.89321612289536    2.44958135043224    2.26897902074501
H         3.60913825474670    3.25096870854355    2.18788187140551
C         0.76173637342975    3.88235360104227    2.66608549625895
H        -0.31163170962470    3.68897046337723    2.69481877352812
H         0.95093284721037    4.59706196583835    1.85744386777850
C         1.24998900882274    4.48044052811618    3.99208069269549
H         0.55466467422499    5.23152812176778    4.37480739869589
H         2.20823939619293    4.97033530093572    3.80854843975419
C         0.02564490368828    3.16295141772178    6.33119431907860
C        -1.12373999879582    2.88658696654679    5.35672030419455
H        -1.31405848108493    3.74439682870221    4.71614747300488
H        -2.03647507191462    2.67873714831499    5.91351633974165
H        -0.90638744391381    2.01682199723782    4.74109090604191
C        -0.25799173113526    4.46746808677065    7.07335575052525
H        -0.16253928536594    5.33714441808593    6.42737984950751
H         0.39965613120868    4.58771487108093    7.92988749537092
H        -1.28116654970758    4.44353170651633    7.44770274001242
C         0.09189236214144    2.01512520253376    7.33957472170109
H         0.36724476463988    1.08676670240108    6.84754723170687
H        -0.88510962509329    1.87894358732917    7.80142433656361
H         0.81132440226717    2.20871438999460    8.12890615618695
C         3.03269259785295    3.96182372601300    6.21532636782698
C         4.25921763679790    3.79855868984436    5.31227299475086
H         4.19528849680163    4.43433052520456    4.43200032554343
H         4.36276745336142    2.76481070855872    4.99134749133281
H         5.16099481737659    4.07633899560305    5.85597223268064
C         2.87565599292575    5.44654527023131    6.54627628086609
H         2.65497517761811    6.04327578764573    5.66533886814364
H         3.81697448126508    5.80694836651529    6.96092782892238
H         2.10319833921199    5.62468643940411    7.28562065775945
C         3.26874400676757    3.16825347937034    7.49953262217577
H         2.55046658170496    3.44018575982477    8.26875340591835
H         4.26521275857792    3.37167077473618    7.88921599459565
H         3.19421032622874    2.10119870767682    7.30155618138819
C         1.01917754405275   -0.02741891674089    4.83952753897240
C         2.14808245662308   -0.63584803541080    5.48126313102886
C         2.14784796510022   -1.92811556889987    6.16937200129058
C         3.26608549088049   -2.76110125517888    6.13805060880467
H         4.14702698057800   -2.44818090160943    5.59743799375662
C         3.24517419812491   -3.98174908664315    6.78389687123180
H         4.11763105261312   -4.61875713062377    6.75360665007393
C         2.11008552907744   -4.39390714501517    7.46378089561939
H         2.09734052709185   -5.34900726836106    7.96839877419866
C         0.98952204778886   -3.58027050906272    7.48560339146594
H         0.09916471079466   -3.90114101379023    8.00712323945507
C         1.00393992247074   -2.35803397768494    6.84061186240356
H         0.12758482292845   -1.72752901148063    6.85450622991389
C         3.14009704142388    0.25980306881979    5.18698017196875
C         4.49532176215012    0.20623163658415    5.69951371353485
C         5.60307237821803    0.46971853447659    4.89007301733122
H         5.45038560082344    0.68547342797132    3.84354843632332
C         6.88270000635257    0.43222914944117    5.40824249946924
H         7.72839361554643    0.62330008052670    4.76315609702059
C         7.08429460908968    0.16119169527776    6.75158764637618
H         8.08479870186201    0.14200156171374    7.15792535636929
C         5.99367438931538   -0.08413385302381    7.57186819888554
H         6.14395118815016   -0.29538288814261    8.62081088468426
C         4.71443680132707   -0.06801548052047    7.05583132255081
H         3.86774970038570   -0.26853454956365    7.69618793371265

