44
CSD_code = WEFFEU | q = 0 | S = 0 | Stoichiometry = C18H16F3NO5Pd | MND = 6
Pd       10.87429992980083    4.27986853480331    9.78522505372681
F        10.30919172395384    6.70128051973594    8.67072948968559
F         8.54100745229728    5.78568316732155    9.49957292492489
F         9.32293329647703    5.09721818398446    7.61445897746910
O        11.00870078663782    5.69956420289535   11.24702072899789
O        13.10176755018353    5.86356909820732   10.58532468797894
O        12.50451464272561    5.00639508952287    8.14447956793571
O        12.10641858500965    2.98827995002275   10.97803498440462
O        13.30522501319526    2.68626222438706    9.15028710226300
N        10.49717300672313    2.73846923918154    8.46572695212382
C        11.03398182929438    2.48289086731652    7.28951095286261
H        11.69943896548371    3.22850566505955    6.87598894024686
C        10.75620470596416    1.30635245078570    6.58948030145606
H        11.23016156389610    1.13991201868909    5.63566621134447
C         9.88954748896077    0.37880683616267    7.12125438038052
H         9.66615897479076   -0.53983911691779    6.59888448797965
C         9.28013486102219    0.64714866472527    8.35580641154447
C         8.33318108817156   -0.20536544955458    8.99713957223310
H         8.07891004369849   -1.13479084717725    8.50960376832181
C         7.75699269228164    0.13784159300999   10.17667550521710
H         7.03483549811566   -0.51799329813451   10.64053061105993
C         8.07462339538235    1.36071056130141   10.83884856555023
C         7.50136010347609    1.77818911159514   12.04983256991875
H         6.76813183258620    1.14811220054664   12.53116045891648
C         7.86844793397038    2.97519453976794   12.61762143581937
H         7.41795870059834    3.28765414692537   13.54795330777465
C         8.82675222918206    3.80878115756213   12.01904106696329
H         9.10733319513345    4.74298647057447   12.48572338815944
C         9.39562145733183    3.42118419178894   10.83702899870498
C         9.02816623124566    2.21029723521406   10.23706786655454
C         9.62497975710953    1.85614137793436    8.99476150029728
C         9.69854034960788    5.51547554857102    8.85230870842583
C        12.20201547979405    6.13703227988627   11.37308414114074
C        12.43265900404010    7.03007244990949   12.57792582005193
H        12.60965606745353    6.39526833949430   13.44394871724125
H        11.55080452218886    7.63682783670974   12.76114352544701
H        13.30405697823825    7.65503254886820   12.40822070881246
C        13.11706179911169    2.53511768393540   10.36657137096026
C        14.12501026270121    1.76580557487668   11.20361416299469
H        13.61930516381089    1.23368248599127   12.00457940268740
H        14.81370269583955    2.48642849886099   11.64161943977618
H        14.68401192961310    1.08054644455573   10.57243551591459
H        12.95495764237032    5.71067822335995    8.64162066424962
H        13.03866357052882    4.20002149774183    8.34858705148350

