109
CSD_code = WEFPAZ | q = 0 | S = 0 | Stoichiometry = C57H36CoN15 | MND = 6
Co        6.34864529313916    6.58865153417689    7.71470101708710
N         8.19366249358549    6.32974508360501    7.33377984897513
N        10.28470560504204    6.75782261327014    7.95698501827593
N         7.00468334418863    7.72503889282650    9.16736818525327
N         6.54366864634847    9.49427918926238   13.61741311584298
N         4.69494174954908    8.76095026208177   12.47382395462368
N         6.14408744279631    8.01403778355634    6.50563608634459
N         4.62733871065504    9.33066516058530    5.44995532054472
N         4.51462137207324    6.98199510309597    8.15622087206316
N         0.91234453481475    6.04742024089684   11.08952909694854
N         2.84845959228044    6.80883588617641   11.93579436636218
N         5.74075537403927    5.32278882136469    6.44371443529235
N         4.88093146823915    3.23583069137176    6.19189425685388
N         6.31677847778123    5.03066399813556    8.95957785497820
N         5.24210980781359    3.73989907659892   13.50840252257787
N         6.51104854925091    5.50304507063317   12.99846190527486
C         9.03193985635446    5.70527877145192    6.44199685941823
C         8.78499682255525    4.93432645591922    5.30997305608030
C         9.87306528607333    4.45506896694918    4.61043739420278
C        11.18421286391658    4.72304241161785    5.00678703566332
C        11.45355493333240    5.48807048890116    6.12448700958143
C        10.36576024511302    5.97219246282402    6.83135106906628
C         8.96865472369444    6.95328150287498    8.22081913336637
C         8.35640028370739    7.67131779422785    9.28791653583063
C         9.01764371242945    8.19703648252217   10.41016092750350
C         8.28340978403594    8.66396745440132   11.46706679008040
C         6.87693858088567    8.63972229080787   11.38228660424119
C         6.04321170017874    8.96793987648505   12.48116778689596
C         5.46746216593129    9.66298967219579   14.39944523721002
C         5.35075991407252   10.16434183843604   15.70155652501315
C         4.10004954150736   10.21079368135974   16.25556402435292
C         2.95708575386937    9.78776477270773   15.54600545219302
C         3.03481123303662    9.29176011637500   14.27163341990847
C         4.30194779789338    9.20762379269460   13.68303454244782
C         6.30967813248360    8.23614196555128   10.16115017724575
C         6.83086569230314    8.76165932735482    5.59915868208655
C         8.17605562678163    8.85220007442835    5.24664807786281
C         8.52505792184668    9.74170112701285    4.25652618706731
C         7.57509620096081   10.54408581156854    3.61116420476588
C         6.24323329817682   10.47947069692203    3.94151070364897
C         5.86090014894936    9.58559331793305    4.94073971147448
C         4.83773025979204    8.40148413499826    6.36136201810712
C         3.92011715726092    7.84435341828057    7.30783944869869
C         2.58252510295202    8.22128400688588    7.46043060708098
C         1.88315172227882    7.80598987174494    8.57231807167183
C         2.55181094390414    7.03208796163561    9.52521598933078
C         2.04173154242164    6.65519686420030   10.83675605690527
C         0.93947717068460    5.78153972886150   12.43296549973665
C         0.01044247852150    5.13967663412166   13.24667396358244
C         0.31548266593537    5.01162891296860   14.58429640658936
C         1.50983997009787    5.50610668864282   15.11881890232210
C         2.44533059342727    6.14505014596043   14.33316607435637
C         2.15063190305992    6.27359314254301   12.98378541488621
C         3.84123141974339    6.60715285877999    9.23571479657341
C         5.38025456301045    5.19303819820975    5.13687586339075
C         5.47929183477362    6.03098636157380    4.02570918589902
C         5.02556371396347    5.55242666871884    2.81946231686660
C         4.48395270706294    4.26548054946381    2.68427103767568
C         4.39085025761664    3.41364385246745    3.75643112065857
C         4.84250361730901    3.87271527894973    4.99454549135601
C         5.41603289201913    4.12174026695463    7.01386919467833
C         5.66043856291466    3.98425903139649    8.41262514853878
C         5.19551793411281    2.91428355388416    9.18536705549680
C         5.28917339258764    2.98036794185710   10.55509915824794
C         5.92295791808961    4.09137649504676   11.13079757013975
C         5.93131221168250    4.42110091881060   12.53674226623937
C         5.37772279032118    4.46015235924517   14.66559353519683
C         4.88219325422200    4.28565322396240   15.94782148278986
C         5.20115179059297    5.25688974006384   16.87435244010078
C         5.99234103601931    6.36231768311978   16.54194723909141
C         6.50523926239906    6.53503032812389   15.27604754746218
C         6.18961075617561    5.57054410217251   14.32141569394437
C         6.48218065704955    5.03963931392247   10.27289380325226
H        11.05827338734214    7.13477436417098    8.47778414559094
H         3.64730259166235    7.47671600398913   12.03399362706435
H         4.68048138810310    2.91444497810649   13.38861370962728
H         7.78012276468416    4.72827095026603    4.98581337795229
H         9.70629641582697    3.85725918485105    3.72789069144798
H        12.00290800250531    4.32756639142401    4.42593373063455
H        12.46410567576764    5.70419847147421    6.43439157222659
H        10.09643549543495    8.18196614306262   10.44609082727325
H         8.73827292044526    9.02817016167851   12.37341583715275
H         6.22638370435311   10.50132829778718   16.23589514448107
H         3.97058322797062   10.58929711026429   17.26007701885988
H         1.99280146195100    9.86447460947072   16.02871935272101
H         2.14910281277760    8.98550520677528   13.73447909048682
H         5.24014093341947    8.33019443360556   10.05954531318394
H         8.92726927817202    8.24325741640187    5.72339401986133
H         9.56224091859728    9.82536045912232    3.96509609890367
H         7.90511178554677   11.22462779514112    2.84023182129327
H         5.50106821596922   11.09170826432247    3.45472696340453
H         2.15259161305337    8.87033197165067    6.71530197741414
H         0.85914272021960    8.09937302665501    8.74054708920359
H        -0.91162321829432    4.76287797810302   12.83368158507894
H        -0.38535984381477    4.52099823389425   15.24416388263061
H         1.70258485689761    5.38733480377427   16.17493374064804
H         3.36174594818008    6.53797120685884   14.74524826706565
H         4.33174300667372    5.96137284502694    9.94758826456823
H         5.90849628702603    7.01608673923401    4.09782736052164
H         5.09087474448402    6.18482473222339    1.94641184494343
H         4.14181605466366    3.94369883470400    1.71164948742799
H         3.98766409779845    2.41750456474778    3.66618518918083
H         4.71600595157021    2.09519142649149    8.67540954908315
H         4.86854868819686    2.19787222964611   11.16841469535684
H         4.26247099364516    3.43922331189540   16.20257472008385
H         4.82530812972902    5.16798187978610   17.88269798963770
H         6.19844357133964    7.10070833281626   17.30185554670505
H         7.10460034117124    7.39056211882393   15.01149807265355
H         7.02217831322515    5.85103472308732   10.73576299023854

