92
CSD_code = WEFQUT | q = 0 | S = 0 | Stoichiometry = C37H48Cl2N2Si2Zr | MND = 4
Zr        7.55584652179979   -0.13382531886540    3.28158935408149
Cl        7.82621087413304    0.18956727725499    5.62366585160029
Cl        6.36614376931559   -0.21835677551736    1.21824960757897
Si        8.08707843373132   -3.18246953972909    2.95672565703445
Si        8.29706604409418    2.98668024476102    3.02242801411622
N         8.83507876834760   -1.64818150999608    2.82758121581815
N         8.68621652789328    1.37905221180534    2.59617487064572
C        10.10464813360810   -1.47785003410028    2.14624305774139
H         9.99327181724276   -1.68968317380710    1.06915121374972
H        10.83861868337089   -2.20053374345609    2.53461470787527
C        10.71249309810541   -0.06735548849995    2.29771802834213
C         9.76524647954752    1.01161546951341    1.70740043225281
H        10.37689259661499    1.89242524558929    1.47445077694839
H         9.34769418271604    0.63030585426843    0.75522519813970
C        10.98862165282409    0.21883592418539    3.77765473106100
H        11.76731768056459   -0.44800374716217    4.14459324305676
H        10.07933527461892    0.06099127436591    4.36774574744046
H        11.31990098903777    1.24728342326030    3.90879647346882
C        12.02903136877013   -0.02881713918820    1.51303219732678
H        12.69568509486578   -0.82158676440338    1.84481079096026
H        12.52979866109482    0.92448859180556    1.66359320553356
H        11.84595622704803   -0.15919978034673    0.44878327914835
C         8.91390454078465   -4.25179923864543    4.35589297769570
C         7.90076717380555   -5.17311346824476    5.03705248593226
H         7.45861250339897   -5.86515547981354    4.32493571045869
H         7.09515518084668   -4.60028542360902    5.49000088843119
H         8.38549258044077   -5.75677909719215    5.81956438919531
C        10.05389285962053   -5.09966950735819    3.78666639303131
H         9.69315631267917   -5.80971568446080    3.04881270880664
H        10.54554967278653   -5.65681101884234    4.58420089959524
H        10.79803011022886   -4.46936619821270    3.30544782180059
C         9.51552670820434   -3.31159145397735    5.40696670177928
H        10.26947413100961   -2.66781632056755    4.95869079642490
H         9.98761442576098   -3.88945727174753    6.20198394999835
H         8.76346354016630   -2.66880558555966    5.86067732133534
C         7.68462696404199    4.12618548923825    1.56666559460091
C         6.39912547647804    3.54340253082794    0.96735198660726
H         6.53923541610203    2.50398737774831    0.67297645059761
H         6.11085559788515    4.10907372862959    0.08114375144453
H         5.57876853590563    3.60057699731243    1.67989160552613
C         7.37503799899666    5.53844272647168    2.06910298269715
H         8.26227145723527    6.02548734447074    2.46247671626427
H         6.63127110096465    5.50432629011904    2.86261172121815
H         6.98097917800355    6.15066323252240    1.25815866544657
C         8.72300024233600    4.18982349333759    0.44558346550426
H         9.68694021303778    4.53894069375290    0.80516058796462
H         8.39033608780361    4.86694521727807   -0.34135286142887
H         8.86081372129911    3.20413058723648    0.00860649929628
C         7.90416309513866   -4.11815328333668    1.29753221980027
C         7.90590425968218   -3.36747286270789    0.12168618901963
H         7.99765169924792   -2.29204075396117    0.18459427584151
C         7.76090793194395   -3.96659904804142   -1.11639247627001
H         7.76456835915277   -3.36147299229254   -2.01141749130129
C         7.60206350206998   -5.33919336416581   -1.20743858229029
H         7.48974283812309   -5.81169497714734   -2.17249280851798
C         7.57438297347279   -6.10048618201772   -0.05184942566855
H         7.43290792633110   -7.17025940475937   -0.11282323331252
C         7.72185878373674   -5.49354276865796    1.18319029275924
H         7.67908686688751   -6.10350702986807    2.07283063689519
C         6.29634113148806   -2.63467628586751    3.39181905513329
C         5.98683954755760   -2.06380071641430    4.63071653465409
H         6.70460385347707   -2.11244611294513    5.44324845650809
C         4.71949870051708   -1.55306640273841    4.89349953420361
H         4.50122924608244   -1.13954210305546    5.86985144738107
C         3.73044082944556   -1.62415780328439    3.92311711498903
H         2.73840976396105   -1.24680505635406    4.12809053141104
C         4.00813333383021   -2.22058491488241    2.70338225834837
H         3.23556005137761   -2.30188091990818    1.95328294888357
C         5.27695840938641   -2.71185795989394    2.44297505474460
H         5.47689846702912   -3.17960792588657    1.48960561684003
C         9.72205080037684    3.75549641876753    4.05075130496087
C        10.02189518372888    3.17309079406903    5.28426487562905
H         9.42516779439717    2.34456068601198    5.63654827064501
C        11.06704658246530    3.63241078705784    6.06498876920408
H        11.27237543636302    3.16324751843980    7.01626472239236
C        11.84951422991839    4.68856937165358    5.62839827601490
H        12.66549025585078    5.05249865700747    6.23597882340846
C        11.57886613294336    5.27186327459636    4.40347478156759
H        12.18610905010675    6.09290643811114    4.04897694664636
C        10.53039058524432    4.80589164423320    3.62808523773603
H        10.34526126899026    5.27694815807869    2.67535293039450
C         6.80529762093983    2.72348775383653    4.19179582389704
C         6.73013319613429    3.35226600862230    5.42964661686137
H         7.51530113044297    4.03377987537098    5.72087018250451
C         5.67555324972738    3.12118315055086    6.29653546891984
H         5.65165772344139    3.61078882386360    7.25898828634289
C         4.64933874090843    2.26818282159371    5.92940151211644
H         3.82144927763181    2.09056403203456    6.60024885785053
C         4.68032386725122    1.66019047899102    4.68428433969233
H         3.84878833152431    1.04846498567787    4.35946459339934
C         5.75553908250674    1.87243443989332    3.82850898363659
H         5.70414427993317    1.46462028714927    2.81766438204186

