92
CSD_code = WEFTOQ | q = 0 | S = 0 | Stoichiometry = C37H48Cl2N2Si2Ti | MND = 4
Ti        3.05422548730370    3.41439360132851   11.69791981868464
Si        5.52445731241897    1.65448797780846   12.26975022923441
Si        0.71817921103521    5.36335652578302   12.38098419530988
Cl        4.35512350399466    5.21906246663921   11.63789638947815
Cl        1.78340362632658    1.92179819529003   10.58101831368203
N         1.65315313321393    3.95206544591418   12.75373944444029
N         3.94679129112008    2.19443715182494   12.74817383090048
C         1.26055969895208    3.10903649945476   13.85493939212576
H         0.72317829528910    2.22361504836369   13.46693460569302
H         0.57724141015264    3.65223159292592   14.51947496826873
C         2.45330047782468    2.62120605789990   14.70527070275659
C         3.30056684612024    1.61372946787938   13.89959016380623
H         4.05341216468728    1.19104957121652   14.57805263579577
H         2.63874525209377    0.78968789695813   13.57404316278283
C         3.31275149927940    3.81589301763352   15.12855890077402
H         2.72235616285377    4.51032993494826   15.72361019366349
H         3.68060346364371    4.34196752508483   14.24279942789155
H         4.16359204725834    3.47794480067577   15.71726783179867
C         1.90675571113913    1.90779392585279   15.94605683890522
H         1.28408904273132    1.06209204381356   15.66202130581194
H         1.30729038814622    2.59142617650546   16.54230000676350
H         2.72381595859873    1.54171321784561   16.56313910704219
C        -1.13418685414511    5.01568483092777   11.88806600184283
C        -1.85817867804343    6.34386727629392   11.65057411795462
H        -1.34481894984272    6.92747297354441   10.88959679311326
H        -1.90228814947801    6.93978981345925   12.55760337206879
H        -2.87761985438224    6.16221736477149   11.31125633054982
C        -1.17012289668297    4.21368154687345   10.58133183600837
H        -0.75673007362126    4.79412382169875    9.75910506558064
H        -2.19888482335456    3.95744870353270   10.32812267176597
H        -0.60428651761654    3.28778888969964   10.67281744164597
C        -1.88626526499681    4.20924262452671   12.94813467181191
H        -1.84888432078531    4.68706910507341   13.92335783788020
H        -1.46107790709975    3.21336525973046   13.04050929687162
H        -2.93366311247474    4.10382875210411   12.66463485973046
C         5.61665331346684   -0.23875220820698   11.82968219846188
C         4.55919859266428   -0.58359029636499   10.77374597587520
H         4.81175023293922   -0.13813696691764    9.81427269790349
H         3.57100418085236   -0.23468075403581   11.07128467721856
H         4.50898975653432   -1.66368644918018   10.63493694920620
C         6.99155217578915   -0.57734896292247   11.24628492154614
H         7.20028086127572    0.04027306294774   10.37529392802338
H         7.02331870660301   -1.62262972249649   10.93990004181927
H         7.78397881756649   -0.41216202966509   11.97009890176188
C         5.35299457315841   -1.11686697657722   13.05510833099897
H         4.32661180264716   -1.00052005595142   13.39279900026915
H         6.01064660040200   -0.86641505116355   13.88252534882047
H         5.50821713784641   -2.16637019144950   12.80436389246233
C         0.95379204438686    6.55122516168864   13.86137126216919
C         2.23859960289457    7.04863216507879   14.08784073766010
H         3.03504435056535    6.78064187494232   13.40804005181612
C         2.50818311857593    7.87909812875165   15.16008139019638
H         3.51035992952806    8.25300498303233   15.31153547282152
C         1.49660332015197    8.23264170792302   16.03799429337652
H         1.70332265646235    8.88279141752421   16.87579221908123
C         0.21768549015614    7.74606207715357   15.83388764379413
H        -0.57869369377436    8.01421082796452   16.51373183382545
C        -0.04510639660668    6.91442559077981   14.75830902344547
H        -1.05075933709760    6.54760642764316   14.62091457223230
C         1.51318506507689    6.15828931918000   10.84534396831447
C         1.68197876868540    7.53655758784894   10.77477277042772
H         1.36386697107485    8.14736890895754   11.60707874715348
C         2.25562413596034    8.13711523461108    9.66785488530762
H         2.38457603094481    9.20950872655423    9.64175651351767
C         2.66453765330911    7.36384620157650    8.59602940576442
H         3.11312301737907    7.82676838282662    7.72921105631620
C         2.49061612300063    5.99039881476503    8.63834379010781
H         2.78634066771582    5.38609628302717    7.79204986926416
C         1.92521959473937    5.39339850967421    9.75391678737645
H         1.76189806697176    4.31351024140563    9.74682017423855
C         6.75635879726163    2.22808070054268   13.61547966187522
C         6.70391555697979    3.57157516545392   13.99248601247320
H         5.99960981276039    4.22905802343664   13.50211845320211
C         7.54356059124448    4.07844219116086   14.96722885766564
H         7.48245352877451    5.12234802180176   15.23841638888653
C         8.46339188724456    3.25187510167423   15.59125127979116
H         9.12204429912481    3.64417878623469   16.35248782494479
C         8.53558175419706    1.91887562911629   15.22785127122754
H         9.25297842499061    1.26580288148908   15.70427002165803
C         7.69067682958866    1.41769531751853   14.25206786376232
H         7.77165798600233    0.37556125695157   13.98533783519207
C         5.84209941146266    2.68585540980482   10.69876112740873
C         6.96142174547280    3.50322209562881   10.58374000660163
H         7.70973600678637    3.48353549563313   11.36260202527548
C         7.12625677065696    4.34893539541009    9.50062855615913
H         7.99833714933920    4.98363816739419    9.44135885031526
C         6.17123135787649    4.39166917631489    8.49936691685463
H         6.29207261339594    5.06017539665823    7.65947766880530
C         5.06586547567014    3.56054592499195    8.57558028396540
H         4.33886695036608    3.54624764782252    7.77359746020082
C         4.89969500898200    2.71946975646006    9.66752084102281
H         4.07220952842965    2.01490138379301    9.65874569765889

