34
CSD_code = WEFYIS | q = 0 | S = 0 | Stoichiometry = C13H14N2NiO4 | MND = 4
Ni        3.01186774945838    8.05946149546983    5.10918779842562
O         1.40122233459964    7.77073738094527    4.34596423558778
O         4.74136270042708    5.60159423103131    6.61408545948572
H         3.85564796407655    5.99681114482296    6.54419242961411
O         2.24329534879785    9.58608503757869    5.89228422413771
O         2.77638261281075   11.38743660016563    7.10069827377541
N         3.83500071253194    6.64283628072060    4.15421909248233
N         4.54268839749130    8.53881078881950    6.18147630263634
C         1.00881962068786    6.91661854391307    3.47786496834429
C         1.86995702803144    5.92640089414912    2.91479802212557
C         1.36125027712674    5.01193652449561    1.96854387026777
H         2.02984937114318    4.26994892983463    1.55524965255510
C         0.05220797820068    5.05858859126160    1.58034292258147
H        -0.33109051215111    4.35606943476909    0.85689323517088
C        -0.79972309291857    6.03034319731371    2.12787994841300
H        -1.83337719522699    6.06159059970306    1.81558384113996
C        -0.34341708114885    6.93386169030339    3.04559010229523
H        -0.98870274544842    7.68463710688743    3.47342428664723
C         3.22511653220701    5.87052118184850    3.30194721026349
H         3.81302219436941    5.08941412579870    2.81632202650596
C         5.25020548135435    6.36799841603840    4.35411940421622
H         5.49793186810601    5.38731651863623    3.93097759668414
H         5.84857676747715    7.12835872147484    3.83962715665418
C         5.63575262623902    6.35716140240436    5.84820253538069
H         6.60504603833758    5.85795337911083    5.95549878421021
C         5.76667347609300    7.79091594835644    6.38412741364041
H         5.99355749464045    7.73639768227414    7.45583815388848
H         6.59956171836540    8.29579906673921    5.88050349015002
C         4.39749671517829    9.65666298792556    6.79504881749311
C         5.38455137174386   10.30965845151697    7.68347384484790
H         6.34333482315366   10.43901383777067    7.18114215094315
H         5.55296924089293    9.70702773698633    8.57752433839577
H         4.98217338554600   11.27781058465238    7.97803186195233
C         3.01528879780648   10.31282148628178    6.59203654908806

