55
CSD_code = WEGBEP | q = 0 | S = 0 | Stoichiometry = C12H24N6O12Zn | MND = 6
Zn        3.11950793752345    3.22007858934790    4.54494602177856
O         4.69320587915538    4.41097707099761    4.88537886850147
O         6.11374549329295    3.94692285560389    3.34836927914497
O         5.98248674638592    5.92352783180485    4.13721115845291
O         2.45226744010178    4.63119667529189    3.29492537768839
O         3.93828518093012    4.07843852763053    0.80078503057479
O         2.20086870879682    4.12362130935483    6.17389109000841
N         5.62081936975830    4.76588961605274    4.11423053639414
N         4.20884223125668    6.26548130716546    1.35771210481076
N         3.00596304793257    6.56540340077683    4.29479262488940
C         4.62709899947915    5.07806685350602    0.87201468496469
C         6.06180576731049    5.23225196826265    0.42204655209155
C         6.52287235351279    6.54163437700254    1.06173260014962
C         5.22624268111798    7.29267558385628    1.39371508418237
C         2.86751225491913    6.47840227986587    1.85107027118812
C         2.74667714206845    5.82039078285750    3.22756185129983
H         2.53248801964162    3.71007651533910    6.99356158772091
H         1.27557872611737    3.79699404232539    6.10920426194790
H         3.38471641627990    7.49449604362295    4.22799619914661
H         3.08602631111344    6.07514420201527    5.18025593990253
H         6.07528824427014    5.26870256542204   -0.66903535760323
H         6.64777473194316    4.37418356367638    0.74531045295303
H         7.05676557530267    6.32924242239423    1.98642729835573
H         7.17147135525432    7.12146720706569    0.40914559691404
H         5.28144307876764    7.74576862877534    2.38660437225743
H         4.99397409984384    8.07125928213751    0.65591904527072
H         2.16794781476724    5.97037379791465    1.17987003807992
H         2.65794515027229    7.54750617134987    1.88754298682303
O         1.54594633362052    2.02925820320037    4.20457307426767
O         3.78678518239864    1.80890744204044    5.79491683401304
O         4.03844564054534    2.31654914723104    2.91613983166898
N         0.61838445614625    1.67431341229152    4.97577926686935
C         3.49240140129210    0.61969836737613    5.86218340087302
H         3.70704175936721    2.73010083929640    2.09637446861551
H         4.96374434521671    2.64310346938413    2.98104993570282
O         0.12562631708328    2.49319599044389    5.74182897114418
O         0.25665474509806    0.51670046103650    4.95272183289798
N         3.23323804841904   -0.12525296149827    4.79488366112232
C         3.37176975658182   -0.03846158231294    7.23862540542731
H         2.85459207822874   -1.05439413584155    4.86158828243009
H         3.15327597574760    0.36505673955605    3.90944812066371
N         2.03044125262112    0.17430223857645    7.73203920062236
H         4.07130917680542    0.46959429892204    7.90984051354192
H         3.58145044604886   -1.10754178565223    7.20206176513492
C         1.61210225103217    1.36166004838708    8.21781689212579
C         1.01312558958058   -0.85296132423435    7.69598109302244
O         2.30084650170583    2.36131742203201    8.28912470501555
C         0.17741841521530    1.20734543150795    8.66783496935346
C        -0.28355892450047   -0.10204045633719    8.02813030816722
H         0.95793556656370   -1.30595398043661    6.70304418642307
H         1.24557831096604   -1.63160578278713    8.43365949088545
H         0.16392065818033    1.17083818015108    9.75891122679369
H        -0.40863138185290    2.06536787469774    8.34459477491183
H        -0.81761641063242    0.11041685297272    7.10355156055467
H        -0.93204824859701   -0.68188788142570    8.68081066985839

