90
CSD_code = WEGHAU | q = 0 | S = 0 | Stoichiometry = C31H53N3P2Pd | MND = 2
Pd        5.86360514615100    0.51412388687580   17.88756156125031
P         5.47821131410929    2.66933304159014   17.31363095967859
P         6.73378780040291   -1.51326120432707   18.37115711855211
C         2.64588451883158   -1.61517475371228   20.44252613897139
C         2.45491651647856    0.78133325699530   20.60866358230201
N         2.61960762010017   -0.35600239913336   19.76331151087929
N         5.04806717079619   -1.46420114567453   20.44333500000034
H         4.86537390235995   -0.61343736081707   19.89301227590403
C         6.26283536551417   -2.14164654457811   20.05679715603155
H         6.12105360681626   -3.22682926099759   20.04175275002799
H         7.06257832948605   -1.90807056648655   20.77153614020011
N         3.43442905534231    2.09433327084301   18.86107941307386
C         1.93420187001071    0.69264499609767   21.88785511910508
H         1.68337765696130   -0.27627896106123   22.29329630024240
C         1.49811101088634   -2.33019636883973   20.74306877297932
H         0.53351313092789   -1.92272710681608   20.47766069607793
C         5.98893098116896   -2.75984439144502   17.16852405743871
C         3.90647206839060   -2.15213107626844   20.77007260360816
C         8.61653766860316   -1.50763774260385   18.40588521552708
C         2.55400895435457    3.17930658343521   20.85771860605013
H         2.77465256078567    4.15916073826053   20.46134949804532
H         3.99755280146145    1.23845818113582   18.66868694522001
C         2.83064146100839    2.04425337682827   20.10031705108960
C         2.00154499411751    3.07216428492929   22.12192012621350
H         1.80324120006402    3.96726196807325   22.69363561078305
C         6.66028075663344    5.31233482973391   17.40628721515701
H         5.72078755293363    5.64105825100515   17.84731248099345
H         6.62942696617589    5.51439304112111   16.33864405443148
H         7.46520460464301    5.90819712738695   17.83622363932107
C         3.95502330351719   -3.37877799254513   21.43702165985164
H         4.91024185920992   -3.78871515878248   21.73072621255406
C         6.90956659518533    3.83543868792991   17.68211524791359
C         4.79229357972252    2.75980228801608   15.56311877862301
C         1.72141281131561    1.82894835804193   22.65295457895693
H         1.31399979478920    1.73661812113212   23.64848018230043
C         1.70568962414661   -0.33633274449485   18.62355096466861
H         1.84098771405437   -1.25239017762681   18.05061754802716
H         1.93725400235002    0.52023380628654   17.99354784954876
H         0.65341105737050   -0.26073108067102   18.92370510486487
C         1.56518252168579   -3.55808425228410   21.38010220829081
H         0.65939530423749   -4.10081767750757   21.60477684265774
C         4.09679093037455    3.28784348294277   18.38401114037536
H         4.52296813155016    3.87269768691782   19.20980143558105
H         3.38712327543604    3.92847964626701   17.84439593953959
C         8.94215300493468   -0.33018468577466   19.33352177029312
H         9.99750235349737   -0.06986130406166   19.26780072365511
H         8.71511052448862   -0.55712150553215   20.37327405049446
H         8.34834262848790    0.54285096170783   19.03012917168652
C         2.79858078039763   -4.07155744682894   21.73723011228012
H         2.86378383930982   -5.01924561658339   22.25200614383825
C         4.33865518879822    4.12388073094567   15.06139955191836
H         3.81079875274603    4.00734121808281   14.11501261777220
H         5.18574319072857    4.78362606116118   14.89146359711426
H         3.66265315906387    4.60511542381484   15.76513463353912
C         9.28193084208818   -2.78460090951828   18.90440609100316
H         9.12107224006373   -3.61103241101314   18.21782550469302
H         8.90365880470364   -3.07219996313828   19.88300511788516
H        10.35664477888384   -2.62520036263925   18.99184294587191
C         6.51808367173925   -4.18552317664674   17.23492934404765
H         5.88863434738502   -4.83873006212037   16.63079896885557
H         6.51362878407429   -4.56596501709239   18.25482612777068
H         7.53163149036969   -4.24626253424657   16.84477237629986
C         6.15109981741716   -2.17109554061162   15.76434236322543
H         7.15826849065090   -2.30087531421972   15.37920498837723
H         5.92115388024910   -1.09592960596670   15.79593801481202
H         5.46144479328031   -2.64901851987992   15.06957698598005
C         3.60991133984236    1.78441240667772   15.62987539978479
H         2.79513285693310    2.18761703358574   16.22794653304394
H         3.94162759967285    0.83438559783472   16.07802295180647
H         3.22950310296573    1.57424497684956   14.63113267830092
C         7.18480792586725    3.59983160067544   19.17473425523893
H         7.05288896425978    2.53471088349529   19.41591255279910
H         6.51853716518092    4.17999991808369   19.80921689822246
H         8.20671896763590    3.88079038365556   19.42386315459032
C         5.84837746077267    2.15438129450586   14.63659526967907
H         5.39511193026034    1.82707234404426   13.70183728153951
H         6.30565078278589    1.28411144963818   15.12311165682117
H         6.63044955455552    2.86996416218296   14.39669382946201
C         4.49364775635348   -2.71270669137294   17.50244092274556
H         3.91382971252348   -3.20305467485768   16.72089467219976
H         4.17150725749590   -1.66305254468133   17.56122740456454
H         4.26662763567673   -3.20524102840643   18.44561829516860
C         8.11055684273055    3.30649136050067   16.89661358552163
H         9.03887933268277    3.72463585473642   17.28334933451535
H         8.04169193841433    3.56057881038943   15.84221917569539
H         8.15279523467147    2.21514318503049   16.99448611675571
C         9.09936021466260   -1.13782406961828   17.00334744760455
H         8.47455691738155   -0.32916894246376   16.60641036661511
H         9.05010028151375   -1.98834739611917   16.32811148917958
H        10.13197677136420   -0.79211727936715   17.03235023386137

