49
CSD_code = WEGJIE | q = 0 | S = 0 | Stoichiometry = C21H21Cl2N2PPdS | MND = 4
C        -1.52625695645222    3.98986022293646    4.76580656593968
C        -3.68780707788339    4.76960352393648    4.51493904198000
H        -4.07296877240045    5.45750432235462    5.27675233032242
H        -4.53296420471607    4.28613581254778    4.02001476713589
C        -2.74702034562291    5.48110076170387    3.52101732189743
H        -2.95230775852011    5.18593302272635    2.48772247642775
H        -2.80916483688799    6.56878665435024    3.59257708285600
C         1.23779116197769    5.92196300973351    7.46503765855065
C         1.54533796264838    6.22582875300263    8.78719995414125
H         2.47969105667749    5.88800276265217    9.21383452145853
C         0.66237344826130    6.97965952573786    9.53880888823365
H         0.89409005915146    7.21212619560496   10.56792208183025
C        -0.51417371811414    7.44629862824312    8.97291538983264
H        -1.19872666666146    8.03478240687488    9.56587170374081
C        -0.80386496113420    7.17833698245265    7.64461548119928
H        -1.70756991183206    7.56852941884302    7.19928525152657
C         0.07290762815611    6.42037113195353    6.88996399779209
H        -0.11677820511344    6.22299117043331    5.83249631314394
C         2.59034720841114    3.30522392829258    7.09928419593115
C         3.06915301862861    2.37210857513983    6.17506273441392
H         3.25634944944177    2.69057907487825    5.13961579542023
C         3.29290746659762    1.06522408281633    6.56121126532592
H         3.66424298728448    0.34439719582741    5.84811808696911
C         3.02407220479719    0.67823904588162    7.86623738160212
H         3.18945331263263   -0.34527422278505    8.16839691961580
C         2.52969360455974    1.59581486177406    8.77705194428402
H         2.30678039663903    1.28618761756678    9.78775356983476
C         2.31124992810492    2.91079883389975    8.39928152825904
H         1.90817317134562    3.61867654734467    9.10840422850883
C         3.92791861982409    5.78965549845304    6.63243627214774
C         3.96616931772605    7.16935512213008    6.44589691626715
H         3.05823312633937    7.69317590852028    6.17815662279970
C         5.15889783517216    7.85144438030106    6.58320639559162
H         5.18860411448310    8.92052927173351    6.43377914513692
C         6.31900500774428    7.16224095646572    6.90189296351026
H         7.25248073567726    7.69572163288731    7.00443331277134
C         6.28440566473602    5.78965016696615    7.07937448700013
H         7.19005949079547    5.25221337355397    7.32038444564787
C         5.09309107291377    5.09848496149017    6.94202688831716
H         5.06986764351006    4.02543587961965    7.07376334136121
N        -2.80777001687830    3.78566218643300    5.11048713148961
N        -1.42298703642005    5.02997527267679    3.92145409316482
P         2.33308326777619    4.95922344125459    6.38505183275385
S        -0.24401086120095    3.09033838756534    5.34992140933961
Cl        2.95685123087108    5.95084115022679    3.50733188384897
Cl        0.78783689284409    3.93245812156317    2.23948297402059
Pd        1.46791853305212    4.50646738502502    4.36864867356690
H        -0.65149299514293    4.96731806968775    3.20776273840135
H        -3.08537229377167    3.15891898670376    5.84420999463898

