53
CSD_code = WEGPOO | q = 1 | S = 0 | Stoichiometry = C18H24CoN6O4(1+) | MND = 6
Co        0.00000041879944    3.74499744268630    0.00000056732409
O         1.02029571511178    6.28918589189754   -0.53215199322590
O         1.20911890963700    1.68689881061736    1.65307658127596
H         0.31948084190264    1.31004426991581    1.28838830270393
N         1.23888768038087    5.19085638538861    0.09415363065459
N         1.29931660147794    2.94024510203703    1.14251461353480
C         2.29479632518185    4.98152462967658    0.82197605866432
C         2.32426682613406    3.67301628972050    1.42988748916339
C         3.44159833134322    3.22961587699309    2.30376751320643
H         3.25976588175282    2.21894324739285    2.65900752282093
H         3.53908595538559    3.90001237508743    3.15585276474971
H         4.38020343540347    3.25485221753982    1.75291729943544
C         3.37280802789671    5.99401070921557    1.01143542153964
H         3.11911176016739    6.88987736606286    0.44914564843968
H         4.32814941306511    5.60991245156929    0.65837368081553
H         3.47832326361451    6.25186731811574    2.06373896895480
N        -0.93822292028500    4.44651489166967    1.56216582015459
C        -1.23958598943060    5.74483604347983    1.66064204821356
H        -0.94057627039004    6.39855229724654    0.85341380227834
C        -1.90324961704226    6.28093159645557    2.74944974293584
H        -2.11883390530871    7.33680290871341    2.77081889955923
C        -2.27647090878086    5.44835726063983    3.79203147621527
H        -2.79443844660561    5.83605178216551    4.65500692608206
C        -1.96395760181797    4.10234110568889    3.69182320173832
H        -2.22866541218295    3.40612819181846    4.47094545677097
C        -1.29983315274030    3.64443070357273    2.56818466206596
H        -1.06654264156984    2.59202280717896    2.48816992407427
O        -1.02025891406068    1.20079914704246    0.53209354912129
O        -1.20911753001886    5.80310781058835   -1.65308131112940
H        -0.31955136026810    6.18001473296527   -1.28827648507342
N        -1.23888554282516    2.29914162638343   -0.09415563887054
N        -1.29931620374390    4.54975611308232   -1.14251303868746
C        -2.29479506130696    2.50847849168135   -0.82197922274181
C        -2.32426073471746    3.81697930972945   -1.42989952098618
C        -3.44159447413989    4.26038098918641   -2.30377445773464
H        -3.25976601830853    5.27105575009561   -2.65901074922411
H        -3.53908162706187    3.58998590570416   -3.15586062702044
H        -4.38019879509951    4.23514111964848   -1.75292342423347
C        -3.37280783348778    1.49598994783122   -1.01143822624576
H        -3.11911107410600    0.60012536466469   -0.44914607278625
H        -4.32814879526338    1.88008719072616   -0.65837402228624
H        -3.47832606837210    1.23813182618837   -2.06374163177276
N         0.93822437001850    3.04347816944497   -1.56216397882483
C         1.23958685349932    1.74515845264195   -1.66064429798598
H         0.94057926787214    1.09144147361896   -0.85341701853403
C         1.90325036570100    1.20906522379521   -2.74945289468037
H         2.11883522356604    0.15319425464788   -2.77082317164087
C         2.27647044666885    2.04164117787292   -3.79203304465206
H         2.79443606216718    1.65394817213142   -4.65501004161618
C         1.96395800361506    3.38765762393000   -3.69182136424867
H         2.22866481107751    4.08387196093529   -4.47094281171692
C         1.29983637106332    3.84556515080429   -2.56818099107056
H         1.06654573643138    4.89797304211335   -2.48816553550360

