55
CSD_code = WEGQUU | q = 0 | S = 0 | Stoichiometry = C30H20Cl2N2Zn | MND = 4
Zn       11.71450273453894    4.76127635207004    4.64240004028987
Cl       13.34924809185450    6.23908612418422    4.44144792083943
Cl       10.36165586639102    3.93475739816781    3.09877662479663
N        12.73688344081379    3.00576713282834    5.22129674795956
C        13.93587946046368    2.71452657348635    4.73319981965163
H        14.51861838729707    3.55900451070632    4.39170505605614
C        14.41577255975446    1.41969492008796    4.66242238498479
H        15.39910370160494    1.22588215727974    4.26561501022391
C        13.59643660114427    0.38584904101583    5.09146568401180
H        13.92583496850627   -0.64064071675893    5.02831476676516
C        12.35082566562184    0.69169452993848    5.60708191614393
H        11.68834070466636   -0.08170065995464    5.96406279673331
C        11.95648845754476    2.02525666383141    5.67693795692997
C        10.66993783947988    2.41525872191015    6.27617402834816
C        10.62680460509585    3.35642905404674    7.29211117910883
C         9.38019458159622    3.68431746607031    7.88859532956897
C         9.28383232484848    4.53963312782487    9.00770897509433
H        10.19030967031125    4.90981481288338    9.46344959776203
C         8.06638530550888    4.87959941567669    9.52748716320007
H         8.00690315837344    5.53514483319957   10.38382857428264
C         6.88565300654797    4.37474512577989    8.96257302661891
H         5.93189480660354    4.66231579579292    9.37951272986466
C         6.94765669333776    3.50719619051282    7.90887275195025
H         6.04551172266749    3.09035885867462    7.48513400459191
C         8.18806659297848    3.12791126650209    7.35511911270781
C         8.27283037133169    2.20218693000568    6.29438350924022
H         7.36128417244395    1.78941961693791    5.88892861991404
C         9.48466592800985    1.82822462356520    5.79302088870042
H         9.55142764067652    1.12135987419279    4.98058850953350
N        10.39671947846839    5.83412392087067    5.89724860653100
C         9.35854167419001    6.49474455206207    5.40081613683691
H         8.98333231624466    6.13126995189672    4.45399669894500
C         8.78853796859806    7.57733351709405    6.04502692404031
H         7.94088907386452    8.08271671208965    5.61140811394895
C         9.34596021667581    8.00419762679906    7.24139460192638
H         8.94489255460228    8.86159682070406    7.76118682066261
C        10.42231282768983    7.30984180239557    7.76125523803479
H        10.87649989104622    7.60081225978947    8.69588084048961
C        10.91494408641106    6.20748845378967    7.06774635707319
C        12.01580821777371    5.39175227538162    7.60533665354907
C        11.87025928401038    4.02070367077267    7.74244930463505
C        12.92726610737042    3.25876299329349    8.30780977517648
C        12.79452527832043    1.88164760724288    8.58926391638816
H        11.84001267127633    1.40343947904426    8.42596898098157
C        13.84623228791562    1.16263931567214    9.08410075579345
H        13.73110919715722    0.10959473334756    9.29490488627198
C        15.07914527490365    1.78443669481168    9.33191495210277
H        15.90255813690736    1.19874164192733    9.71289805751603
C        15.22515707880575    3.12542267203061    9.11463793714115
H        16.16175119593396    3.61917946513158    9.32951491765812
C        14.15691262134986    3.89853231924199    8.61437313935576
C        14.27707794092445    5.29075369347738    8.42306768852366
H        15.21801343639964    5.76872243161425    8.65083018224647
C        13.22180227408924    6.02334545276084    7.96542838070415
H        13.31228984905472    7.08823019629779    7.81712540759611

