60
CSD_code = WEGRUW | q = 0 | S = 0 | Stoichiometry = C27H23CuN6O3 | MND = 5
Cu        2.13298747845305   13.88704761509874    1.36322465698504
O         2.34289206278588   11.91895620360962    2.02749101149184
O         2.22929361081341   10.52073832344698    8.05990262618078
O         1.26399218494449    8.78207302569594    7.22989005101473
N         2.42276620118454   16.00286067334537    1.47074548057495
N         3.77867505194157   15.47679913815204    3.24070465172213
H         4.33522698945184   15.79223570900468    4.03389368751773
N         3.26063205780378   14.23416227419807    3.23276635529096
N         1.81020879152072    9.87057712776587    7.11019845428296
N         0.12122798029826   13.79194166022081    1.94206540733089
N         2.70536547550785   13.40747957859866   -0.57452902738421
C         2.00392109321400   16.87012524916105    0.52233902170166
C         0.94876264374350   16.47354455281461   -0.32017174086745
H         0.53685247549613   15.48817105505521   -0.15848225829228
C         0.48648870261903   17.31688787829631   -1.29447804204379
H        -0.32298360536442   17.01032020762490   -1.94019585063947
C         1.05987038048455   18.58317952579591   -1.46247393890121
H         0.68968914098579   19.23777792711732   -2.23751616688752
C         2.08320479300381   18.99590877035389   -0.64886134340607
H         2.51591687923097   19.97441478276714   -0.78920294612557
C         2.57992696603680   18.15892910958969    0.36659512994219
C         3.63172741124700   18.53463586412643    1.25785657247497
C         4.02657477302157   17.63325171993191    2.20552793831588
H         4.81171525080983   17.87326857996933    2.90767298205146
C         3.39760423910538   16.36745111382512    2.28454447393015
C         3.24725986881390   13.53099285679610    4.30231289722441
H         3.65063303490469   13.94626276503714    5.23615541781628
C         2.68533500631691   12.21907939354755    4.38244360340861
C         2.55100674011645   11.64744765889689    5.63978094302004
H         2.89987478020695   12.17583688441011    6.51649971713073
C         1.95677123818061   10.40723930657649    5.81486821115873
C         1.49482585926762    9.68960690440308    4.69527907874148
H         1.04320024937703    8.72195221616263    4.85488137767113
C         1.62861194672983   10.22092064205083    3.45189166672475
H         1.28770461471423    9.67819468211658    2.58233758451282
C         2.22602157733686   11.50185994357341    3.21288630958931
C         4.27571385154486   19.88082237471401    1.16201523602235
H         5.05004204584965   19.98855960412664    1.91715157463775
H         3.53625382303662   20.66708281046670    1.30745889261467
H         4.72657899856012   20.01906671946821    0.18030183416568
C        -0.42888495138411   12.63792768413252    1.57156178567437
H        -0.32621000751763   12.38547708790981    0.52482439655338
C        -1.09070783206305   11.79721115943681    2.44803928622213
H        -1.51546278825930   10.86882291812278    2.09966704499524
C        -1.18701635784797   12.16831657014272    3.78051931763937
H        -1.67661732893853   11.52804255996579    4.49863048718264
C        -0.64243836179872   13.38308998785764    4.16822949797152
H        -0.70533826282324   13.71742199636584    5.19198047228162
C        -0.00767779108850   14.15832959090033    3.21502798785511
H         0.42204953635820   15.11846315991376    3.46622987723833
C         2.68493766491144   12.11759694691523   -0.88949726209386
H         2.24481617890275   11.46585214786763   -0.14968340542218
C         3.21708542591077   11.62784928404197   -2.07108849542179
H         3.17756206487902   10.57181732303096   -2.28740930092219
C         3.79766898080040   12.51717254455532   -2.96149608506256
H         4.22169426993107   12.17147371136520   -3.89283609702124
C         3.82465606309727   13.86234896944162   -2.62669872932075
H         4.26880548162835   14.59156193976522   -3.28615365104307
C         3.26677190179669   14.25929072515971   -1.42324105923718
H         3.26293345021044   15.29997126518277   -1.13247759876279

