33
CSD_code = WEGTEK | q = 0 | S = 0 | Stoichiometry = C12H12Cl2N4O2Zn | MND = 4
Zn        8.93526160601616    7.12689680666813    2.52092828383415
Cl       11.07774064455366    7.64078158542350    2.21429704306167
Cl        7.14412583018951    8.38392747967336    2.12328765133789
O        11.62611699333815    4.84577691298010    7.18274499325527
O         5.06643788412002    3.40325224079529    0.20637345714489
N         8.69121049525203    6.43140555321488    4.51269474414398
N        10.92792380317865    5.97635037321400    4.83454667129354
N         8.67414910928321    5.25859438594388    1.54863487191461
N         6.39286850036338    5.48080237501360    1.30571460419728
C         9.68805593080943    5.95272701577062    5.29347071453466
C         9.39209274345382    5.41125483863440    6.58775217860604
C         8.07184396357221    5.40076220854880    7.01721870079476
C         7.07708686397415    5.90603587329648    6.19700826386432
C         7.44013901577431    6.40650231388190    4.96029941460976
C        10.44403314928931    4.89788951464799    7.44817766840643
C         7.48446804862955    4.75092182412068    1.15008966241927
C         7.41571542273233    3.43342862583340    0.58869689281120
C         8.58984654080679    2.70337128536361    0.46206539295093
C         9.79112651129491    3.25435349623938    0.87538272394406
C         9.77675910124583    4.53000046703978    1.40784685165845
C         6.15365998758753    2.87040936329020    0.13972552917635
H        11.66209154164975    5.65346776524644    5.45678118486437
H        11.15188661975279    6.47590322386215    3.97193422377796
H         7.83422005977728    5.00016016218875    7.99240470491561
H         6.04530058040434    5.91633945441525    6.50458803768669
H         5.52074916253095    5.09742137254201    0.95518196825389
H         6.46032271676154    6.46174368050239    1.58270191784648
H         6.69933725899306    6.81965607781094    4.28989441953240
H        10.07386568553407    4.53572986719743    8.42474061226576
H         8.55394811087049    1.70994929624769    0.03788244496768
H        10.71827394339326    2.71428834244872    0.78600112763119
H        10.69159250120366    5.00601353583341    1.73203916257905
H         6.25524967365523    1.86008268211250   -0.29720611827895

