97
CSD_code = WEGVOW | q = 0 | S = 0 | Stoichiometry = C50H40I2N4Zn | MND = 4
I        14.98947932590954    8.97973412166778    9.40923079300707
I        12.04993465205858   12.55324095710085    8.90764815984076
Zn       12.86876150304126   10.30802529155030    9.74919518395152
N        11.23284041941047    8.92790426353153    9.34441277389524
N        12.68585880528087   10.56546279117428   11.89396080245476
N        13.67271212253847   15.66954913560590   21.30263718801261
N         4.95613421622710    1.85592070829493    4.21739092909026
C        11.46911463020166    7.62367480913371    9.20025123362119
H        12.44169722801436    7.27453397116481    9.51726000558644
C        10.55934984179306    6.74035461124357    8.66490409706012
H        10.83151128225929    5.70154801584122    8.57511947978969
C         9.30677331058786    7.20259360577076    8.23919558811956
C         9.05257749008100    8.56506884233377    8.45158985741222
H         8.10219549382056    8.99256006841848    8.17071934846128
C        10.02788187461587    9.37353657277248    8.98836271562090
H         9.84342752807207   10.43020617850720    9.12417324620736
C         8.31086300161384    6.38374579920781    7.59418856931591
H         7.35800843371916    6.87075965209746    7.43858627561186
C         8.50705450043169    5.13181067284878    7.13930217170202
H         9.47703567077676    4.67081070102508    7.27590885313538
C         7.55755550711767    4.31537646224809    6.42604313829914
C         7.96871673539439    3.06524410890568    5.94300907155784
H         8.97646794965110    2.72885497350099    6.14148648836157
C         7.12200302044709    2.25565765285643    5.22477088826095
H         7.46411295642076    1.29530311943335    4.86860304578943
C         5.80960225439957    2.66077717980884    4.95606076827821
C         5.38393784901016    3.90079738596101    5.44763910911226
H         4.37629473212980    4.23201693813587    5.24410622693612
C         6.23809095808989    4.70581478252675    6.16246710347287
H         5.87726929107499    5.65995124509400    6.51357426427242
C         6.48194559276275    1.46842302400514    2.36650307699040
H         6.88206849487002    2.46332602412508    2.49687803167828
C         6.97065394422452    0.64463318790687    1.37092583614218
H         7.76016752228749    1.00068753612717    0.72594362985243
C         6.44627557008569   -0.62488446595058    1.19120473663404
H         6.82938823634950   -1.26463707392380    0.41101156709344
C         5.42689383156544   -1.06787505168567    2.01793988312994
H         5.01442659930087   -2.05706628740595    1.88582001737265
C         4.93731045738363   -0.25467725759439    3.02196935569312
H         4.14673069453154   -0.60293737938170    3.67046288546189
C         5.46223053117047    1.02303297264757    3.20589226334268
C         3.57239578567327    1.87254503446703    4.45169477150687
C         3.07559941185179    1.94380280713817    5.75223951382849
H         3.76463791119225    1.98514797232676    6.58326191726590
C         1.71207274383622    1.95421348206972    5.97455912183073
H         1.33846654380301    2.00760378897875    6.98645783721044
C         0.82739123011590    1.88417668217005    4.91080722602338
H        -0.23704295854032    1.88847611431932    5.08898783989520
C         1.31718970593865    1.80550498900018    3.61735040328089
H         0.63442643159308    1.75302719918133    2.78235065502746
C         2.67891758702408    1.80294427613158    3.38415794294167
H         3.05997296952472    1.74971984223056    2.37483910830009
C        13.75234130564032   10.54328585060618   12.69303954187676
H        14.63834310883033   10.06643158849637   12.29642422942852
C        13.76839195678998   11.09366799454904   13.95474348447947
H        14.67358967031541   11.03945423162503   14.53692191809733
C        12.61885022994190   11.71784088646605   14.45647887663599
C        11.48923661974253   11.68273966067140   13.62600556514925
H        10.56018156630190   12.12519452196779   13.95135861647112
C        11.57135060788359   11.11491752920585   12.37598305113799
H        10.71221388481830   11.10726784194418   11.71926792158145
C        12.54861273572217   12.38860690517380   15.73086021621831
H        11.55668099338404   12.70606347692321   16.02177496011902
C        13.60467725612799   12.68684957217513   16.51069546983589
H        14.59599620479126   12.40248909209527   16.18174412654751
C        13.57751847206484   13.41546767968262   17.75372489636735
C        14.79101906175520   13.80637783583960   18.33599555558251
H        15.71846188518087   13.54405341818048   17.84718032577164
C        14.83072775895331   14.54000631186861   19.49743145366457
H        15.77968616936264   14.84763572963428   19.91081280797703
C        13.64581166969878   14.91295951687358   20.14148286077920
C        12.42878752510586   14.50399064377542   19.58235766622446
H        11.50638516449437   14.76039372096700   20.08233494280754
C        12.39759974142462   13.77641583545827   18.41713352539718
H        11.44180585998864   13.46814593530752   18.02281961098745
C        15.30483559769191   14.32503797614587   22.49862135278682
H        14.90473437207578   13.43669992799413   22.03184513539873
C        16.35703361063945   14.23299741579068   23.38943564516449
H        16.78011220968803   13.26530035574674   23.61496239448820
C        16.86011075307700   15.36996503561879   24.00059765669909
H        17.67966688953077   15.29331718764004   24.69868290980478
C        16.30373487344231   16.60544291180318   23.71225003134461
H        16.69277116092155   17.49698564949254   24.18123689735636
C        15.25627860140192   16.70871328311781   22.81722663635927
H        14.82805656955980   17.67313174561706   22.58619950989296
C        14.74653147293073   15.56707221228401   22.20126394033537
C        12.63686388952441   16.57345716574551   21.58810467179686
C        12.17628473382450   16.72020421569610   22.89520697845310
H        12.61548366517125   16.12594162450856   23.68311675883679
C        11.16589399691611   17.61921523131879   23.17790762244907
H        10.81549401197686   17.72355411267089   24.19401598764790
C        10.59815917078282   18.37682535644548   22.16660662726673
H         9.80612280298990   19.07493550941844   22.39049860304707
C        11.05401216819216   18.23450430881891   20.86619243256420
H        10.62198296865927   18.82651815579612   20.07309011192221
C        12.06923545070716   17.34400766104235   20.57465904917295
H        12.43315015986521   17.24339514600716   19.56255242863720

