65
CSD_code = WEGVAG | q = 0 | S = 0 | Stoichiometry = C18H39N3S4Zn | MND = 5
Zn        5.94149232063018   10.13529325369159   11.00917340358898
S         3.53059265306983   10.72608017865244   11.11542066508006
S         5.19232196546790   10.90759683266691    8.69205168751739
S         6.70466076499635    9.21854200469356   13.23638534770008
S         7.61279493850854   11.70401463378560   11.95016749982976
N         2.64063985605406   11.55498712235313    8.77782174197034
N         8.43161801411651   10.89162677588599   14.32169385713849
N         6.71087916987277    8.26035445067933   10.00950668369989
H         6.46467697959933    8.37127170767357    9.02671405592821
C         3.69248189398088   11.10976251568936    9.46209492927563
C         1.34113010817576   11.70696724817874    9.40172412338283
H         1.22561556555069   10.92631518109612   10.15739948977334
H         0.58134839810114   11.56555860382582    8.62971031095546
C         1.18870090591977   13.07678465330375   10.05584418536970
H         1.93153269886344   13.19443196994314   10.84008270146564
H         0.20004102295259   13.16722183740901   10.49656519903762
H         1.32250783963669   13.87132131384422    9.32492683650041
C         2.74651629320574   11.91923207607272    7.37916218750312
H         3.75159529825222   12.30631206424350    7.19523414354515
H         2.02193378678795   12.71251254815275    7.18263083219800
C         2.48714033670195   10.72307125951868    6.46815678760198
H         3.23526202828486    9.95564159160469    6.64728700914424
H         2.54650355063094   11.03137345944152    5.42837818796350
H         1.50189908539511   10.30147277875928    6.65467113038221
C         7.65675433096695   10.62432400932589   13.26920769927485
C         9.28245792170410   12.06556880920692   14.33270896123776
H         9.49654672295238   12.31630866322144   15.37367128123214
H         8.72761383691148   12.89185525767561   13.87879845530198
C        10.58356510532857   11.85931436545043   13.56184674528104
H        11.18189550506771   11.06849481539285   14.00646722749926
H        11.15974936886204   12.78024620005411   13.57125630155409
H        10.36415660337589   11.59954990647917   12.52980703285171
C         8.47839953601993    9.98595939440947   15.45241933071402
H         7.47293589498029    9.58306014494363   15.60404331450214
H         8.76275906124646   10.56267596889220   16.33521417595562
C         9.45054070227703    8.82822654845727   15.24405096360815
H         9.17061062969629    8.26804459530998   14.35605251694325
H         9.40933822016584    8.16160283841317   16.10086561597593
H        10.46983334515486    9.18734871641125   15.12998543263137
C         6.05755470970436    7.04224436853699   10.49215038225083
H         6.32582312835967    6.92231396314859   11.54555244351483
H         6.43457852266766    6.16761500020902    9.94058327543905
C         4.53438280643670    7.09639984019352   10.36963692018276
H         4.17921165856861    7.97931890189849   10.91276146018754
C         4.08514261570532    7.19865706975679    8.91351009702011
H         4.39882126771662    8.13959899190706    8.46601492605393
H         3.00011242739223    7.15321895144643    8.85572969969392
H         4.49345514361559    6.37689626607092    8.32702878371096
C         3.93368056928485    5.85616661836475   11.02664343823593
H         4.26718185646020    4.95477134617847   10.51562167747539
H         2.84826129603804    5.89393474809043   10.98430668700253
H         4.23378385942271    5.79458669853151   12.06963169992999
C         8.16842503529049    8.13489285503971   10.07377432921517
H         8.48692410565175    7.19116265291085    9.60508584292585
H         8.44847165111572    8.09482073758235   11.13071039644449
C         8.89253199623667    9.29803367938174    9.39341770162592
H         8.50863514983502   10.23672119207697    9.80600990457702
C         8.65376034098238    9.30346580683875    7.88525985468413
H         8.90914769740186    8.33822555585084    7.45025558566506
H         9.27225977293821   10.06402532377423    7.41571925597618
H         7.61769972235965    9.53782443449634    7.65078979476238
C        10.38566537100765    9.20878405515924    9.70013793702825
H        10.55865366162708    9.22710438526706   10.77399915434834
H        10.91363597861755   10.04787118285843    9.25469404210134
H        10.80285739608209    8.28671907969755    9.29947665870491

