83
CSD_code = WEGVIO | q = 0 | S = 0 | Stoichiometry = C36H40Cl2N2O2Ti | MND = 6
Ti       -0.97693408556030    3.39821725462931    4.93388067403213
Cl        0.01843125640863    4.85509904166719    3.56263200615994
O         0.45108855283906    3.28563175012778    5.93467172720964
N        -0.02255221621900    1.68427484441643    3.95263927266465
C         1.52507001673571    2.62255194663934    6.21695772836875
C         2.49484742341248    3.09245618465969    7.14936119364670
C         3.50929553315372    2.23187016152722    7.50607231072606
H         4.23844244487179    2.54030756890841    8.23805842834240
C         3.66649476411818    0.94849127789676    6.96077100571328
C         2.81108624685169    0.55043272555040    5.96619603308922
H         2.94493563310219   -0.40354307056655    5.47499357099902
C         1.74732255544125    1.37542655834463    5.56491474558036
C         0.93422359843424    0.98558284797610    4.46217245160822
H         1.20959066544479    0.03771201209229    3.98026710674979
C        -0.71767279483794    1.18339910088502    2.84418168847909
C        -0.85290390462631    1.98182086890641    1.70843000356791
H        -0.37077861422361    2.95080192954776    1.68883762174217
C        -1.57952715618961    1.51840239865276    0.62840613118438
H        -1.66696678989398    2.13078897779763   -0.25632605567764
C        -2.19071290560574    0.27482140575258    0.67012881150954
H        -2.77155316394256   -0.07271867548018   -0.17054624150704
C        -2.04642088254759   -0.52513906671750    1.78998060672201
H        -2.51386157863463   -1.49788528891089    1.82683331538538
C        -1.30007736061697   -0.08383474061007    2.86717925625524
H        -1.19096402829524   -0.70758427941500    3.74422468986612
C         2.41038038660392    4.52174837837677    7.66969705147828
C         3.59936881291908    4.88179028855367    8.56754831346167
H         3.61448177724271    4.27102927901829    9.46777107546987
H         3.51157633349756    5.92233000404419    8.87244993320141
H         4.54274877646055    4.76686776517624    8.03800093419066
C         2.41773870509876    5.47809401318776    6.46675156982095
H         3.31127775868777    5.32579831693207    5.86316928390473
H         2.40532709627880    6.50889183430860    6.81437027890726
H         1.54252132092641    5.32591002459876    5.83572882763695
C         1.12277217290984    4.72557868106620    8.47679438143400
H         0.24512042259166    4.59780273332969    7.84705330486122
H         1.10089608991892    5.73424935206677    8.88364710686230
H         1.07777871667436    4.01654151803447    9.30068629760827
C         4.78073998552914    0.07214501820458    7.44746356787401
H         4.79048523947487   -0.87538287189437    6.91536445875982
H         4.66513913668826   -0.12777644910200    8.51206049390033
H         5.74303693513528    0.56155117638562    7.30384325390016
Cl       -1.97364833722681    4.85556263554018    6.30388912650004
O        -2.40465401652978    3.28539317701960    3.93270411808269
N        -1.93113480948277    1.68404941423448    5.91475763512353
C        -3.47878041822559    2.62248043281165    3.65052098714760
C        -4.44863907343767    3.09245879100281    2.71822072633595
C        -5.46320717234320    2.23197228445408    2.36164089083821
H        -6.19231442385414    2.54035643178267    1.62957138543390
C        -5.62042117051855    0.94857490016735    2.90691031846219
C        -4.76493002750520    0.55045647720899    3.90137619789984
H        -4.89888777192599   -0.40339649637854    4.39271566239289
C        -3.70105935688012    1.37533806833914    4.30253023688492
C        -2.88791798002709    0.98539028671828    5.40521192789232
H        -3.16356545953769    0.03776455032479    5.88735018947102
C        -1.23598090114758    1.18317490181930    7.02318011433294
C        -1.10101234325833    1.98139834365117    8.15901946076644
H        -1.58279502484203    2.95059263447164    8.17851921045430
C        -0.37452822158330    1.51789956493910    9.23906403301509
H        -0.28618773312053    2.13088130909877   10.12356860888109
C         0.23680666700126    0.27441772693554    9.19724390385280
H         0.81833124947189   -0.07273205652931   10.03766825914274
C         0.09259151046389   -0.52545034807025    8.07735234168061
H         0.56058893731359   -1.49775648252032    8.04025762813468
C        -0.65351728090483   -0.08398913517288    7.00010987622340
H        -0.76250153535192   -0.70760010183188    6.12303783177015
C        -4.36418886694403    4.52170689530705    2.19775723047642
C        -5.55317694535677    4.88178116884763    1.29990647162672
H        -5.56851334728740    4.27094539474310    0.39975261782049
H        -5.46540898937010    5.92230837529103    0.99490429663247
H        -6.49646918593268    4.76697527443519    1.82959913236222
C        -4.37135300589594    5.47813458482128    3.40064255888375
H        -5.26488858977564    5.32593564707531    4.00425844169601
H        -4.35895233868328    6.50888999757536    3.05289993678093
H        -3.49608629149251    5.32601131779938    4.03165190590148
C        -3.07669471460545    4.72546339348368    1.39046179700512
H        -2.19900007106589    4.59764328181523    2.02013879389163
H        -3.05476434677647    5.73410275880776    0.98355249615083
H        -3.03182988413919    4.01638025912333    0.56661714673132
C        -6.73475047098200    0.07224532932284    2.42032485229835
H        -6.74449603527216   -0.87529549937078    2.95239428275607
H        -6.61933410672544   -0.12767337134981    1.35572696612901
H        -7.69702099257814    0.56165508566193    2.56407218641674

