43
CSD_code = WEGXEO | q = 1 | S = 0 | Stoichiometry = C20H16N2O3ReS(1+) | MND = 6
Re        2.23834211610894    8.92704353790416    3.82529390890473
S         2.52358758555897    6.74456127888950    2.63091850650404
N         3.41845474844693    9.56833545939842    2.03903229767582
N         4.36915822502391    8.48371111897501    4.38465127648709
H         4.50520611928066    8.61736709782039    5.39086748110297
O         2.32418231222641   11.76708266260340    5.05594753549802
O         1.19605075235501    7.57477553285852    6.39666794186824
O        -0.73313406628718    9.39857081327337    3.09862576652076
C         4.70526913527465    9.72785891541214    2.29163173924320
C         5.17321562602607    9.52448570745734    3.70797205410198
H         5.04246398184088   10.46878547252285    4.25186207647162
H         6.24042209936897    9.27357074714538    3.71259949007357
C         2.97673248821834    9.73784730712328    0.76128652549917
C         2.27422326427210   10.71410425942711    4.61925379274444
C         4.85566273932819    7.15277762637751    4.08346894466641
C         0.37817108827645    9.24969390296912    3.31066403030946
C         1.62734655362888    9.51385078933562    0.43026886837458
H         0.94797552993685    9.18973086998047    1.20369937417526
C         3.86389647816174   10.13539887208060   -0.28060659134524
C         1.54406520530633    8.11439379770911    5.45448490224358
C         2.04667926320109   10.10897558929009   -1.86679224852233
H         1.66886127960225   10.25297464476392   -2.86655055146636
C         4.12341645402623    6.27541726575107    3.29166393578627
C         5.64292756871374   10.10030854961165    1.31650818262522
H         6.67775838193266   10.21689945895991    1.59587393975562
C         1.17498783403799    9.69609418473317   -0.84811196924159
H         0.13545455584144    9.52080644287496   -1.07709916192101
C         5.22193314658030   10.32221986067393    0.03517189718232
H         5.91362439088572   10.62553684465373   -0.73554136818418
C         3.36734212497468   10.32051340611975   -1.58703316330265
H         4.05649322276646   10.63032429970653   -2.35769764379747
C         6.07192822292081    6.72821394010153    4.60938562443900
H         6.63290410648808    7.39066794185465    5.25368958676147
C         6.55885903011663    5.46582762626770    4.32828068339283
H         7.50061873843600    5.15019445070703    4.74768075205205
C         4.62252699964082    5.01519955033514    2.99131899485714
H         4.05536838068007    4.35392002803103    2.35480469175918
C         5.83698325375641    4.61041011384254    3.51033215830445
H         6.21660726325730    3.62796703408564    3.28056417963402
C         1.47248324492475    5.46620378897323    3.38242190874649
H         1.64300686627748    4.52172378285190    2.87378061659931
H         0.44485664959056    5.78513617889535    3.23323812236956
H         1.68718703899493    5.37661924765284    4.44262091105012

