34
CSD_code = WEGXUE | q = -1 | S = 0 | Stoichiometry = C15H4Cl8MnN2O4(1-) | MND = 5
Mn        3.90902558472156    1.89257021706322    2.12865413875025
Cl       -0.14234613995729    3.32651863132237   -0.80901744138400
Cl       -2.50060022009811    1.38695938398343   -0.21041177921911
Cl       -2.16743795892530   -0.93197072527248    1.81496931565156
Cl        0.55124370287712   -1.33623233573051    3.30297125768898
Cl        7.62390137140773    1.63159998534768   -1.12657109421684
Cl       10.12332610496997    0.33533300018899    0.21553896831925
Cl       10.08132339550059   -0.40285139735621    3.22364235062705
Cl        7.53608249295089    0.13149865650012    4.94409982314601
O         2.62888127985114    0.78037890063151    2.43266257673758
O         2.35667867642846    2.57309393855414    0.78851960852452
O         5.30675779477981    1.40753092603479    3.28754481603663
O         5.35633966609240    2.04306049344700    0.87768085989083
C         1.42575752795998    0.79594133609067    1.89684737637800
C         1.30318641152031    1.86862829779479    0.94361952415830
C         0.06290191560775    2.02970536275617    0.30725898491067
C        -0.99020844800959    1.16454338390644    0.58257552556462
C        -0.84517917432808    0.12410554591685    1.49232698950804
C         0.37172182820512   -0.06257494594972    2.15371954288830
C         6.41073380717522    1.09053895936797    2.68496021419459
C         6.43434687714394    1.44779320293778    1.28918484059243
C         7.59294903380418    1.21522001277970    0.54604694655979
C         8.70664546225649    0.63495963882315    1.14751272802974
C         8.68801898239965    0.30360176582970    2.49841490482082
C         7.55326710267238    0.54414962996296    3.26881939093054
N         4.04453933545415    3.76000453996425    2.69590271500097
N         4.80983638841514    5.77036403143441    3.16858322351527
C         5.12915674555308    4.50828893492502    2.79639865704249
H         6.13270814205709    4.17803263155655    2.60380760124722
C         3.45561005559327    5.82399908522548    3.30825939680609
H         2.94206198514049    6.71791436719432    3.59590721542909
C         2.99196659510947    4.57684111922741    3.01636442060431
H         1.98176155668236    4.21556891773022    3.00390070696631
H         5.45584211898576    6.52928450781447    3.30680569430061

