42
CSD_code = WEGYAL | q = -1 | S = 0 | Stoichiometry = C18H9Cl8MnNO5(1-) | MND = 6
H        11.20012791518982   13.04194199783847   13.77766095197125
Mn       13.20071078123884   14.80007894220370   13.58999667950318
Cl       15.26121102415481   10.35060043804227   13.00728192414444
Cl       16.11600171208423    9.91394771020253   10.03980888215870
Cl       15.38989203118779   12.01899392622150    7.87905249721198
Cl       13.79842584063926   14.58533346424863    8.65410501231637
Cl       12.09732928559999   14.61481908546482   18.33762632546718
Cl        9.95369704726006   16.78830266418427   18.96548185494012
Cl        9.09866489252419   18.82161966783649   16.79065596892901
Cl       10.38948826433682   18.73164138764599   13.95335907272492
O        13.10020444021329   14.63377203577422   11.61565535173388
O        13.67525266969010   12.92945168683256   13.36304417331125
O        12.49519778671650   16.52768585428412   13.74641220131490
O        13.14870668988409   14.86429334632707   15.48224400701516
O        11.07952981023155   14.00053961718760   13.71629631673662
C        13.79643115134289   13.63549549654463   11.17437836166929
C        14.13511360763173   12.65245474091135   12.17815849696530
C        14.83224762098855   11.50985507825577   11.80297043428423
C        15.22088593577872   11.31920359539068   10.47609922172177
C        14.89556850930664   12.26018674280045    9.51030362156821
C        14.17836808911905   13.40570658989200    9.85465855280172
C        11.83133060450304   16.63634887321893   14.85078691372793
C        12.21897104106329   15.67436147186649   15.86130381081531
C        11.64669204467052   15.76137650653416   17.13125524680197
C        10.68371101097325   16.72804893079503   17.40767598849588
C        10.30163925638995   17.64318827512055   16.43211500238113
C        10.88311475240713   17.60870103011576   15.16733585309284
N        15.01429693093907   15.29718119494700   13.41085338114930
C        15.98394356457141   14.59698150978089   14.02737317135926
H        15.64946670887297   13.91031095842854   14.79433600806374
C        17.32050115558618   14.72443873618438   13.71207173901303
H        18.05099121778471   14.12321123846807   14.23124156830441
C        17.70720637944769   15.62490855165666   12.72752163555469
H        18.74454679355240   15.74081641786944   12.45345707977859
C        16.71409545170589   16.37933959122900   12.11620729118902
H        16.95873928231553   17.10534625567687   11.35630321359350
C        15.39793608217975   16.19552773811069   12.48576996284681
H        14.59939629255906   16.76958143271368   12.03411743067169
C        10.16191641053238   14.29040290903109   12.67645818550467
H         9.18947497815102   13.83411448848931   12.89183243519164
H        10.53112177237030   13.94469593920251   11.70678827012633
H        10.05645316430121   15.37349388247121   12.64474590384695

