97
CSD_code = WEGYOZ | q = 0 | S = 0 | Stoichiometry = C50H40Br2N4Zn | MND = 4
Zn        5.27999248528946    1.51141986358133    9.22203380315262
Br        3.79941470073272    0.75244292625668   10.90230366650285
C         8.38687013775111    6.85713119089763   13.06091913891699
H         7.33351979768340    7.10025948261692   12.99709858964658
C         8.83838321837445    5.74681193529097   12.45171985855949
H         9.89852877717229    5.53453338400844   12.43428891292383
N        11.41560332629254   10.76170458375834   15.79236977983967
C        12.31464498876375   10.39814363398981   16.80624836955327
C        10.67841645569172    9.79149868480187   15.12635844033820
C         5.92501260183456    3.76363291257709   11.16745318386791
H         4.85740810805685    3.65254285714328   11.29927904467931
C         9.18898888188274    7.82753456047640   13.76684018548888
C        10.99733879600812   14.80369412089884   14.78699136483543
H        10.89414495513854   15.84607693837108   14.52698969188457
C         8.64544148723191    9.08770230107671   14.04660436418070
H         7.63301790133176    9.30583667043180   13.73737884393122
C        10.49578230176247    7.57292422945279   14.19994982517477
H        10.94370574009120    6.60834693005493   14.01781285376835
C        11.26692154090885   12.11557484200272   15.45720291395011
C         9.37267408870107   10.05458474679894   14.69941508354302
H         8.93394251049112   11.02061004232357   14.90131726743816
C         8.01541292484076    4.80339363263784   11.73243066045813
N         6.49481310018211    2.94710051185220   10.28141924669351
C        11.99225627511801    9.37981145354075   17.70204378282849
H        11.04389038237294    8.87079120580313   17.60971163479660
C        14.40811247743240   10.70981927876471   17.94888306467719
H        15.35040569119514   11.22919301619012   18.04090018274416
C        12.87670252103093    9.03128322502604   18.70437722596495
H        12.61462498810082    8.24305179064044   19.39442636887182
C        11.29078971194306   13.09497949376016   16.44861900184605
H        11.41061568653513   12.80277841992189   17.48154148678229
C         6.62828969740416    4.69554259781124   11.89705469884784
H         6.10422426760037    5.31514308852379   12.60646746345797
C        10.96944092488896   13.83314460030963   13.79895185471634
H        10.84975139724691   14.11757326637964   12.76397953546905
C        11.22238575297860    8.52775458053686   14.87132623435923
H        12.22866346118558    8.31065667196772   15.19807534030764
C        13.53399261644731   11.06024486519716   16.93800810239537
H        13.78941827972947   11.84718377941305   16.24357657245003
C         8.60081102898494    3.92176221581934   10.81462421496648
H         9.66608748433568    3.94056452284915   10.64354320656270
C        11.10706200903138   12.49811575237009   14.12606782302744
H        11.09828569193895   11.74308159610958   13.35343469514747
C        14.08592934802612    9.69446116164927   18.83442223208435
H        14.77208214251405    9.42263095497248   19.62182911127985
C         7.81425128941120    3.03400395926174   10.11536588570067
H         8.25214200308855    2.36074306564825    9.39115985271040
C        11.16031945638685   14.42812723950166   16.11038769581056
H        11.17912410390974   15.17817676116140   16.88705542056373
Br        6.76058395194753    0.75233606441435    7.54182502345287
C         2.17308744882082    6.85706119033902    5.38308009455029
H         3.22643063349541    7.10020972273805    5.44694403690372
C         1.72157991125601    5.74671470657023    5.99223435938102
H         0.66143924311113    5.53440736309492    6.00962365444595
N        -0.85559982459496   10.76168122647483    2.65164502268117
C        -1.75463374216883   10.39814350778964    1.63775052793703
C        -0.11842441552942    9.79146104883802    3.31764743845707
C         4.63496412068560    3.76359098970307    7.27655986170892
H         5.70258398041661    3.65256292041789    7.14479763210017
C         1.37097895276343    7.82747073970611    4.67715654666371
C        -0.43728409700840   14.80365932799884    3.65705645009626
H        -0.33406929661134   15.84603857874020    3.91706511694610
C         1.91453318578427    9.08764201768474    4.39741949493223
H         2.92695226699488    9.30576988419376    4.70666398343515
C         0.06419170886072    7.57287026881490    4.24402240617800
H        -0.38373854877445    6.60829272493628    4.42614151913732
C        -0.70690371453829   12.11554724014754    2.98682365643107
C         1.18731347375371   10.05453594861904    3.74461204169533
H         1.62605285568126   11.02056129274871    3.54272748027183
C         2.54455259687663    4.80329964848993    6.71152760683161
N         4.06515867334118    2.94703071312605    8.16256380619536
C        -1.43223548645319    9.37983650748938    0.74193016659926
H        -0.48386932784485    8.87081561962738    0.83425649463349
C        -3.84809315864176   10.70984714480761    0.49510910628846
H        -4.79038791440930   11.22922012417625    0.40310011671262
C        -2.31667478926258    9.03133293045519   -0.26041826234414
H        -2.05458748636289    8.24312670880438   -0.95049290204755
C        -0.73076009892066   13.09496070054197    1.99541608182758
H        -0.85059743628706   12.80277111120493    0.96249156986657
C         3.93168553497393    4.69549565352874    6.54695381809893
H         4.45576245993439    5.31514289128684    5.83758969465574
C        -0.40940133575152   13.83310101270597    4.64508793945940
H        -0.28969730517677   14.11751853948160    5.68006185117406
C        -0.66239959514154    8.52771320545753    3.57264988909273
H        -1.66867276678742    8.31062283529420    3.24588176276528
C        -2.97398178064394   11.06024613235883    1.50600092341830
H        -3.22941336723817   11.84716512256842    2.20045294306818
C         1.95914902787618    3.92163100619605    7.62929452841217
H         0.89386253835800    3.94038049195242    7.80032133942993
C        -0.54704093114184   12.49807682402725    4.31796171708716
H        -0.53826861199467   11.74303672612834    5.09058917318583
C        -3.52590077509112    9.69451342609923   -0.39045439487086
H        -4.21204551182783    9.42270669162727   -1.17787681251149
C         2.74571286792184    3.03389201216287    8.32857235018506
H         2.30781141093114    2.36057675200520    9.05272257882354
C        -0.60027166933490   14.42810396412890    2.33365758944908
H        -0.61907137132401   15.17815919582647    1.55699519939260

