81
CSD_code = WEHHUM | q = 0 | S = 0 | Stoichiometry = C32H43BrP4Ru | MND = 6
Br        6.51446481147831    5.37048591992306    6.18675217163883
Ru        7.56440104612318    5.40676312176055    3.87208015823756
P         8.82478315123628    5.67851853000727    1.90121450330824
C         9.86164420956747    6.68455222557223    2.98676700719746
C         9.26884786297903    6.56407024125427    4.25748134778687
C         9.90894476062903    7.20793641999812    5.31287877157654
C        11.07200952733261    7.93396593588497    5.09206942824710
C        11.62379542592438    8.04069036545944    3.82445232377328
C        11.01950742893832    7.40627565204003    2.75097306685013
C        10.04513715141543    4.60552148371237    1.02152279044386
C         8.39351504720366    6.70192576399629    0.42949076946512
P         6.50972002960428    7.49090444361127    3.86765673133079
C         6.71079153373861    8.68974430110623    2.50149685699192
C         7.90775161208422    9.39655944651100    2.40355147682604
C         8.11331662085468   10.29033218791157    1.36979662659773
C         7.12934524541774   10.48827806069339    0.41451034918124
C         5.94184626992004    9.78086342885401    0.49576160691180
C         5.73505171377016    8.88316375447357    1.52871398834882
C         4.69004356923686    7.56834117086947    4.13120281593741
C         6.95718104115516    8.62484372322337    5.24239729770476
P         5.83286476913213    4.16070703086900    2.98627393917146
C         6.27148026449743    2.52800562737758    2.28822820519283
C         7.24131973903764    2.52796920182751    1.29185463122722
C         7.66136390450800    1.35132836201967    0.70500762287707
C         7.11644979035831    0.14575220643587    1.11835203551798
C         6.15519233554131    0.13231992647914    2.11445892461762
C         5.73110754680405    1.31449152040925    2.69892744535564
C         5.04554873305501    4.83201253703259    1.46115565084648
C         4.34024551828963    3.76907110282366    3.97192056117084
P         8.76916479102828    3.65805657507888    4.80572747019523
C        10.12442782711150    2.82366680967681    3.91228929348650
C        11.37091160494822    3.44339791315085    3.84573057059682
C        12.41737848290966    2.84248499163033    3.17128984236012
C        12.22797107069657    1.62373234198061    2.53896407278663
C        10.98521716531200    1.01415535724073    2.57967303846404
C         9.93825330030823    1.60876628323342    3.26181997560561
C         9.67575271695545    4.03721226738937    6.35665719178854
C         7.82552112912260    2.21294047618977    5.43048643322306
H         9.50570473555771    7.15227178739159    6.31820778634334
H        11.55519477492345    8.42817627925578    5.92518552876936
H        12.52692111793787    8.61656660378809    3.67548724372453
H        11.44253015993146    7.48229672183595    1.75651451114504
H        10.94225035435064    5.19876530375281    0.83997051261408
H        10.30618239647873    3.73307244900287    1.61161907709302
H         9.63280088185877    4.27985771846621    0.06671851938685
H         7.61619411194430    7.42311006559879    0.66104271678565
H         9.28826068241501    7.22592995770717    0.09136949881258
H         8.04176106623257    6.04326773131203   -0.36631228565474
H         8.68631592632053    9.23721044895375    3.13570210911616
H         9.04462832363279   10.83490238234690    1.30913534016762
H         7.28787362664216   11.18934363163320   -0.39175825143929
H         5.17226376323305    9.92786400939907   -0.24880759818231
H         4.80720732607779    8.33116798645000    1.57267363137167
H         4.36209588679155    8.60757392407863    4.08828252590602
H         4.14458131695082    6.98028979187169    3.39578060415474
H         4.48762181044458    7.16377052293584    5.12387086112143
H         8.02910793212862    8.80607670986603    5.26721239061031
H         6.42956682484393    9.56875761052913    5.09643412372695
H         6.65315005781336    8.17218210213610    6.18543028437485
H         7.67028192981566    3.47557731512869    0.98971693229128
H         8.41754720898590    1.36936164497973   -0.06692726614389
H         7.44320206085743   -0.78043402766876    0.66863504485138
H         5.73145988498548   -0.80624239508828    2.44270601296859
H         4.98272671551690    1.27962578200662    3.47710613985960
H         5.81868246178945    5.04152116268431    0.72270588837254
H         4.33565731404401    4.10997181339425    1.05545770074115
H         4.53032128863368    5.76305505168135    1.69016498945359
H         3.61575672311718    3.21067817362823    3.37810297545918
H         4.62976068951130    3.20673738388987    4.86053111236238
H         3.89837941954597    4.70702964055269    4.30939306554591
H        11.51547101797929    4.40858012890467    4.31141089703915
H        13.38237019381285    3.32734068892676    3.13475709637164
H        13.04561669129679    1.15359354346625    2.01229740388457
H        10.82871554718045    0.06846952604314    2.08052468380309
H         8.97327399574926    1.12483665523397    3.28282235845210
H        10.23100892218999    3.14865596679565    6.66115256128506
H        10.36316989871190    4.86797314535793    6.21213639549573
H         8.95400063055675    4.30588717084184    7.12738848221962
H         7.20566758739050    1.78335592204291    4.64513843102619
H         8.51881786841841    1.46158932428227    5.81025258495303
H         7.18243012520128    2.56047593690412    6.24018038690151

