131
CSD_code = WEHHIA | q = 0 | S = 0 | Stoichiometry = C68H58P4Ru | MND = 6
Ru        6.80195826340510    3.00883287029480    5.39292276958559
P         6.26899378157929    4.14224422460963    3.48020541898715
P         5.06867272244112    1.67629256251269    4.74879936732807
P         7.30970128717144    1.79079912263159    7.24279181300961
P         8.36828514117621    4.44297276230585    6.22298130672634
C         4.63558145302247    3.52436883090759    2.82287434885707
C         3.85740379215535    2.80020649283325    3.91049441733044
C         8.88215115335639    2.41973382159404    8.03514176096437
C         9.60235921393505    3.40718124452851    7.12533757000257
C         5.32246476930707    4.06437690983190    6.28663043628112
C         4.49880946871325    4.72920174584558    6.88279316884969
C         3.49767094263389    5.48897085517039    7.53150396687895
C         3.76741684880729    6.15062114030209    8.73203010205847
C         2.78855797500354    6.89719923007526    9.35524737732845
C         1.52232118091883    6.99836191332834    8.80009203168332
C         1.24171537326470    6.34250266690782    7.61228835057044
C         2.21627225770175    5.59503988472499    6.98217976003924
C         8.36191755806424    1.90076894185355    4.70659470588091
C         9.26323517843273    1.12395903115983    4.45124093364621
C        10.26508230944611    0.19034758800078    4.09962466209943
C        10.64496176225213    0.00675627870769    2.76786214957240
C        11.60650208525314   -0.92775242946235    2.43999189091624
C        12.20290085010581   -1.69460190858206    3.42839880114854
C        11.83047125968101   -1.52029945305354    4.75232357940952
C        10.87255141675091   -0.58641022523368    5.08981112457715
C         5.98186628435335    5.93633715284208    3.62491154120094
C         4.78028676832731    6.44196352247340    4.11257043448391
C         4.62856401925916    7.80167924927308    4.31642642263082
C         5.67328482540885    8.66799569574896    4.03869532264671
C         6.87240841651614    8.17122030367626    3.55277517779921
C         7.02937447494051    6.81297480387968    3.35009819920235
C         7.16834223915974    4.13882828478616    1.88379270447382
C         6.71488687934190    4.93700403329299    0.83539270472664
C         7.36073804261336    4.91390613266715   -0.38504628954848
C         8.46357265469973    4.09506985781368   -0.57499177259447
C         8.91247563381928    3.29455191687363    0.45989897862944
C         8.26518150161366    3.31351193389233    1.68346673392567
C         4.03232065661746    0.82629208357049    5.98192141030477
C         4.09768672993911   -0.55490461532603    6.15180900553081
C         3.31117317971828   -1.17881537448448    7.10258576061077
C         2.45644633909095   -0.43507738824108    7.89891171561121
C         2.40732350991432    0.94115970311346    7.75449321130821
C         3.19248941262680    1.56997942257142    6.80666460293189
C         5.12810900333852    0.43873171090462    3.39494076798913
C         6.27867693481134    0.33111121072469    2.62417906673554
C         6.31894693162733   -0.52684627152554    1.53920846499400
C         5.20521371597372   -1.28120447750043    1.21384710300645
C         4.04980226725683   -1.17143344099108    1.97293264420973
C         4.00595566747685   -0.31331974390789    3.05519242641049
C         6.17851270248649    1.82760414903515    8.67330271037759
C         5.48938097137771    0.70948106540012    9.12795469707522
C         4.59273568326167    0.82638087746168   10.17482094277289
C         4.36204570422441    2.05750018375675   10.76323725335284
C         5.02984177296992    3.17977044403078   10.30019020973756
C         5.92847629809845    3.06749113353503    9.25796962816687
C         7.65596809336778    0.00262473372871    7.13864141887716
C         7.36252050514085   -0.70083822098671    5.98027660915327
C         7.65668036554974   -2.04852113777568    5.88020502452261
C         8.23903240998580   -2.70861698154952    6.94833091497866
C         8.50619298942988   -2.02102391477254    8.12202106502833
C         8.21526397452294   -0.67329429884829    8.22107367304491
C         9.49169374215689    5.40650689047954    5.15411666882041
C         9.71595811216336    6.77251452158978    5.28528862870779
C        10.55211466943222    7.42428447130801    4.39522383664937
C        11.16604288883755    6.72696212283647    3.36875227518591
C        10.95414758448431    5.36346165703203    3.23965243796540
C        10.12481590507102    4.70822952092040    4.12865339873996
C         7.89488553605890    5.71819219794449    7.44014611823117
C         8.38416335873325    5.82397596773313    8.73719382311677
C         7.95104947770635    6.85002847707210    9.56116002349247
C         7.03587704576567    7.78153802426606    9.10179877548981
C         6.54261714586397    7.68248176517034    7.81015740891754
C         6.96413740702253    6.65377159334470    6.99118122291044
H         4.06685766379589    4.35201164755505    2.38676463324665
H         4.88476556403426    2.81658371761863    2.02076819518495
H         3.02267966846807    2.22541886360464    3.49485698229913
H         3.48012956717236    3.50445065996034    4.65546170551414
H         8.59425417707181    2.89679000117130    8.97797938116240
H         9.53319586822766    1.57015683672741    8.26133966999448
H        10.15010737851516    2.86515416068076    6.34626427052383
H        10.31521002761996    4.03578161833316    7.66979251006447
H         4.75556697461492    6.07538033719331    9.16243991819642
H         3.01151491604835    7.40661357676104   10.28326016201370
H         0.75804030586568    7.58391496506749    9.29077741657508
H         0.25482029571125    6.41548127105715    7.17536231173001
H         1.98653199388522    5.08380561479668    6.05503444094718
H        10.17472909000530    0.60077264113374    1.99524699905700
H        11.89420391571780   -1.06319453077065    1.40609747607320
H        12.95394838194064   -2.42649608418116    3.16779054223766
H        12.29167359863104   -2.11925774319739    5.52580977714914
H        10.57542148034769   -0.45281198696564    6.12179908777662
H         3.96844413689296    5.77127051489693    4.34921582913897
H         3.69358425583931    8.18350562552570    4.70089887812997
H         5.55401124745862    9.72935224246049    4.20115262866271
H         7.69029844969741    8.84259318737998    3.33455638869803
H         7.96520423411842    6.42303280889797    2.97194676561536
H         5.86082949645893    5.58435284380460    0.98286523998679
H         7.00577838973666    5.53754833429414   -1.19315785081992
H         8.96869525198167    4.08351373312900   -1.52995981790096
H         9.77114613198524    2.65457106301919    0.31359020636021
H         8.60710548252594    2.68870712257187    2.49632168062219
H         4.75671207179277   -1.14718439862330    5.53266996172967
H         3.36551487719991   -2.25200509809882    7.21961473350700
H         1.83564593954424   -0.92680437003829    8.63371822887894
H         1.75606708326241    1.53053685404695    8.38343564294186
H         3.17068854671632    2.64562236919222    6.72105190442805
H         7.14694711737090    0.91839354014543    2.89279808944531
H         7.22074795557619   -0.60529534461792    0.94974415523684
H         5.23270219759327   -1.95426451492997    0.36927272018179
H         3.17819012898532   -1.75702922757253    1.71708857263897
H         3.10221684366564   -0.23216355740908    3.64483403454958
H         5.65106980240702   -0.25409269463556    8.66598235099242
H         4.06950538843589   -0.05031604945101   10.52853388344157
H         3.65842694196303    2.14502064194022   11.57832802322202
H         4.84190225472227    4.14316023473816   10.75106212907877
H         6.43730887878033    3.94502995315401    8.87933353749824
H         6.91943746677804   -0.17366459204269    5.14559651871586
H         7.43823515745593   -2.57994747781548    4.96492042845184
H         8.48146162459021   -3.75835458659088    6.87110289964252
H         8.94555635842542   -2.53817127012433    8.96324946087105
H         8.40975424318723   -0.14694467422320    9.14670963584529
H         9.23665608207006    7.33209626299203    6.07518067089011
H        10.72172755540108    8.48611449125176    4.50370877643844
H        11.80910430020663    7.24430537995220    2.67169813002555
H        11.43255462691635    4.81255882347227    2.44293781083535
H         9.95271069867899    3.64460231407967    4.03599443055768
H         9.10600394443021    5.11819246279222    9.12131523621314
H         8.33522305981390    6.92148848297553   10.56908587512205
H         6.70386797593134    8.57904897140924    9.75051748373911
H         5.82277932890626    8.39951078890806    7.44351931236976
H         6.57949512800734    6.56215819144708    5.98733301777778

