48
CSD_code = WEHJAX | q = 0 | S = 0 | Stoichiometry = C17H23Cl2N3O2Zn | MND = 5
Zn        0.98714647769653    0.83811284525259    2.00498549116175
Cl        0.14005801056012   -0.77614299788549    0.78515727196628
Cl        2.24692259848335    1.00124246245977    3.85280857587978
O        -2.09488068718214    3.43835551239616    3.44664886741756
O         4.12031186087992    2.96895524055159    0.05698232649699
N        -0.94264093229988    1.59532890612547    2.93228630043589
N         0.97967277644880    2.96298261278764    1.73395472024035
N         2.74858835125255    1.32365619591338    0.68223095685372
C        -2.14408922648580    1.07765149133407    3.54503628382335
H        -2.64273732821895    0.43346933822002    2.81325498521908
C        -2.96180894048128    2.36622654641222    3.83166408984381
H        -3.87481959579352    2.43393301238387    3.23460043844564
H        -3.21192567835992    2.48476376064744    4.88815345403120
C        -0.99867246579029    2.86574415863075    2.94016197736061
C         0.09570119514106    3.67459753877919    2.41406113486694
C         0.25751672687357    5.04117480519518    2.62557395433054
H        -0.48209777626588    5.59334193508167    3.18257806211848
C         1.39572415570642    5.64795546855708    2.11416513378444
H         1.55704905414044    6.70550697405355    2.25962567823067
C         2.33663726860764    4.88786125995318    1.43461403824057
H         3.24596468851402    5.31806720480467    1.04709488507441
C         2.08371656502739    3.52844332277315    1.27171267532719
C         2.99183520151902    2.57146095292963    0.65055665289610
C         4.77918657408967    1.77658245685579   -0.38777859294057
H         5.74721701269800    1.71282480534015    0.11388605166424
H         4.93408008116121    1.85529168657230   -1.46558703858461
C         3.81840532528858    0.62452112918731    0.01197626668283
H         4.28613859154519   -0.04971358182323    0.73768418464820
C        -1.84839261323420    0.23662636915054    4.80459334743793
H        -2.81981050041482    0.05525480969333    5.28314029287809
C        -0.93410708264444    0.97329127721416    5.78023820225786
H        -0.84455623092603    0.40119903715675    6.70009132416877
H        -1.31955163348794    1.95969524279008    6.03259671279126
H         0.05963394991424    1.08579686319137    5.35319638866634
C        -1.23389325799795   -1.10231880465865    4.41162573725563
H        -0.27903877990169   -0.94458666276360    3.91334892525221
H        -1.88627235326471   -1.64912646224793    3.73512590335580
H        -1.06132321935112   -1.70822182259273    5.29731325317260
C         3.26714730486586   -0.23328605444014   -1.14312906117480
H         2.54386720183227   -0.91691734121122   -0.68843728963840
C         2.52143950889242    0.60199375492212   -2.17975560923152
H         3.17570287841327    1.31724808783803   -2.67562475772456
H         1.70126276266906    1.13812567456056   -1.70784025907199
H         2.10173149797299   -0.05399896469935   -2.93751236140782
C         4.39042067826624   -1.04512380496980   -1.78016808897249
H         3.98208556647040   -1.70175344928095   -2.54359187604280
H         4.89188644388585   -1.65827583650874   -1.03546901994621
H         5.12966799330165   -0.39691695664446   -2.24713058953307

