125
CSD_code = WEHNUT | q = 0 | S = 0 | Stoichiometry = C48H68N6S2Zn | MND = 4
Zn        3.76209063534997    3.81064202650207    3.42401073025471
N         1.89143137715458    3.40806695658395    3.11761825391542
S         1.35527822312674    2.12834815192186    3.95652102644716
N         2.27110527204193    1.72339607298073    5.21694961336703
C         3.56727316518599    1.71904800998527    5.38920550963805
N         4.43298214078786    2.41389018375226    4.68351840252566
C         0.80315844714178    4.25702359731670    2.62223138453329
C         0.10109486179886    4.96497939709607    3.78774422112487
H        -0.25945457065855    4.23334490502971    4.50880533542141
H        -0.74318443932128    5.54794228653118    3.42765654363302
H         0.79875741400337    5.63104265199226    4.28599910811361
C         1.39254519147073    5.30530946778994    1.67940370251676
H         2.16116892795139    5.88165922882652    2.18779720926769
H         0.61224020565137    5.98368902756379    1.34168888536078
H         1.83613964572489    4.82417411685980    0.81169962956099
C        -0.22338959573372    3.41756810713107    1.84476344344694
H        -0.72464717462862    2.71303461480971    2.50531568685537
H         0.26456468151585    2.85694742125868    1.05094086492702
H        -0.97398591646592    4.06642265428358    1.39943521598696
C         1.81938957760894    0.71540924058394    2.88684238240639
C         2.36504114344109    0.91668747810559    1.63567083297413
H         2.53863040763688    1.92609896213212    1.29588699472711
C         2.68540422847470   -0.17362736391211    0.84408346625570
H         3.11787418017547   -0.01943882474641   -0.13391148547808
C         2.44539624058340   -1.45706382832988    1.30599871569521
H         2.68984754140269   -2.30805217446776    0.68708983161058
C         1.89106906562232   -1.65249889263110    2.56179751065307
H         1.70455646140496   -2.65391648459368    2.92032034511524
C         1.57472148366690   -0.56388750722042    3.35577794309192
H         1.14724572510065   -0.69401660990661    4.33831327030229
C         3.99659073761671    0.83492636363825    6.53884532675093
H         5.05721391920275    0.60565836972042    6.48913830648607
H         3.41309351218581   -0.08214590340102    6.51896408870471
H         3.77984681712473    1.34326521446792    7.47566256905404
C         5.82181771489271    2.26244314297185    4.92266388856556
C         6.56163736679115    1.47391616510937    4.02502532050243
C         7.92877958036190    1.34052873778686    4.21393807451833
H         8.50839835520024    0.73095434403619    3.53903302556015
C         8.56401231281857    1.97047697895014    5.26768660927585
H         9.62943004275809    1.85331621253371    5.40476258294042
C         7.83008900207656    2.73835981189012    6.14891667332386
H         8.33224132278892    3.22032450842313    6.97409092832337
C         6.45833178015291    2.89608498722678    5.99963772012275
C         5.85525527201679    0.73676721318077    2.91004503123318
H         4.98104121465914    1.33289392187245    2.61693985350780
C         6.72264576069523    0.52120788249015    1.67057005654077
H         7.21216675288694    1.44426672277058    1.36950164816914
H         6.10069042695942    0.17560039821317    0.84685516286366
H         7.48343240123909   -0.23512186630988    1.84983652392518
C         5.35603699000229   -0.61652159005719    3.42732326466950
H         4.60273635873892   -0.48237474911447    4.19842129073876
H         6.18381920623715   -1.18798812314041    3.84380658138398
H         4.91063002841092   -1.18781741548226    2.61573222694751
C         5.70518431850695    3.73555969647776    7.00545492890318
H         4.63851308083363    3.69677079060503    6.76712438688752
C         5.91100167650348    3.20603700936058    8.42933111912784
H         5.73880389680220    2.13394294299372    8.48281747915891
H         5.22512010157948    3.70139224352088    9.11372033915640
H         6.92497238416420    3.40223059739842    8.76962548575644
C         6.15035245668475    5.19752754032506    6.93507816055334
H         5.88587735815761    5.62815572939616    5.97420362351269
H         7.22693796883659    5.28713108598918    7.06290773157658
H         5.66425421575417    5.77145779733948    7.72079081297811
N         4.86214097995430    4.73102987449403    2.04681023016131
S         4.85146220309970    6.17726923007011    2.75151852211067
N         4.07459622358211    5.65389078455140    4.10762485870687
C         3.62060217747222    6.67134394790250    4.86456352931254
N         3.92973878891636    7.86518518803741    4.51804301153783
C         5.28058568783874    4.66869397805994    0.65228358606789
C         4.64323702481449    3.43223345819449    0.01402936843160
H         3.56203823178453    3.54113291549022   -0.00657678596899
H         4.90138115115595    2.54650379300208    0.58710329137810
H         4.99904387291597    3.30750107589030   -1.00622991743719
C         4.84557701029663    5.91666065200716   -0.13059812361510
H         5.38366278180568    6.79416492232044    0.22300488755291
H         3.78062455178572    6.09273609756094   -0.00191518858206
H         5.05662976548445    5.78481401049697   -1.18925696942904
C         6.81141425344151    4.54167257756057    0.56671541189046
H         7.28977179908279    5.43762367797188    0.95580851643965
H         7.12226905234661    4.39977018502858   -0.46586577033051
H         7.14777807350020    3.69289490522073    1.15629151133817
C         6.53634250104169    6.41220707635442    3.41176266169417
C         7.01256383985852    7.70646636708571    3.52929742451844
H         6.36873050202728    8.53125929031244    3.26464692016496
C         8.29868089252906    7.91746658213003    3.99782184993338
H         8.68176886795297    8.92263180509704    4.09121306388165
C         9.09536498778593    6.83708823759935    4.34158544013812
H        10.09933132330789    7.00354629779764    4.70450506433443
C         8.61102163671046    5.54450089331688    4.21803197718018
H         9.22991330366859    4.70074396172475    4.48405277965882
C         7.32735707506942    5.32977241003493    3.74854075193073
H         6.93132686466194    4.33194366832509    3.63881025666234
C         2.79278279213886    6.31253218457273    6.07078078098277
H         3.38136195811745    6.48554091871247    6.97000837857321
H         2.49584744710683    5.26706580450530    6.03398709654525
H         1.91458891208477    6.95509509293182    6.11725965057681
C         3.45799766282497    9.02851441975026    5.10527569337950
C         4.20292364957152    9.68804788170731    6.09464804394376
C         3.75317804860742   10.90593311078681    6.57929201242532
H         4.31687063482606   11.41453714750941    7.34797404867506
C         2.59618513894945   11.48507526783840    6.09477340970250
H         2.26075663843811   12.43676076489885    6.48092257791908
C         1.87489332828802   10.84210325565107    5.10605140404021
H         0.97840600691687   11.30524219310977    4.72038860083175
C         2.28345104008255    9.61793025191951    4.60442253923742
C         5.48391642239026    9.08579996671556    6.62372192591178
H         5.66819856405152    8.15065128772660    6.08495483871007
C         6.66921852296614   10.01839709702539    6.36715678803558
H         6.71771472071689   10.28293368921836    5.31386631749525
H         7.59944504547637    9.52765655060740    6.64715152141750
H         6.57492388009409   10.93424313038700    6.94607017042746
C         5.36961429943486    8.77631507708612    8.11801237481940
H         4.51041884738043    8.13776945158764    8.31431345828389
H         5.24564898261902    9.69163468078870    8.69232406542546
H         6.26776875338753    8.27064121492599    8.46791108416118
C         1.49939875351251    8.94005298504103    3.50314223643192
H         1.89879594948463    7.92961594973385    3.37307180902638
C         0.01212144721141    8.82354543646971    3.83875760425567
H        -0.12771602192543    8.33167193572402    4.79936174057527
H        -0.49704184265117    8.23900230095691    3.07498525755667
H        -0.45846872964937    9.80246460694775    3.88454576111004
C         1.69946359455383    9.69173634086408    2.18482789850391
H         2.75721869586595    9.72690348347652    1.93406659235550
H         1.32996613226651   10.71169891784584    2.26570717424659
H         1.16739642012236    9.19219010490260    1.37721958877138

