63
CSD_code = WEHSIM | q = 0 | S = 0 | Stoichiometry = C28H24CdCl2N8 | MND = 6
Cd        8.54047948556652    8.53891368975199    3.97738076627089
Cl        8.54092278745460    8.53918144049158    1.59253196895709
Cl        8.53868846696402    8.53883283792767    6.54825814463947
N        10.40426039755962    9.91752908755289    4.21406004151125
N        11.94415122832828   10.97878063192047    5.40213990236337
H        12.35265403428973   11.50793267969366    6.15424770981258
C        10.64340485943619   10.60838685806600    5.28808118285173
H         9.90428409026395   10.84723293042057    6.02964698303852
C        11.60737283488841    9.80307335126054    3.55769236056613
C        12.59997461655613   10.47624975899678    4.30402554548107
C        13.92064036639783   10.52691646497376    3.88530075576483
H        14.67631693524265   11.04382860682357    4.45799242923173
C        14.22231697966546    9.88613350263168    2.70011779534779
H        15.23947129953664    9.90179696112371    2.33726259181852
C        13.24498397178000    9.22022212227959    1.95518060372422
H        13.53439348390203    8.73893540479848    1.03311678819879
C        11.92884759110409    9.16582737587425    2.36317739452320
H        11.16294381921153    8.66595610595426    1.78982761103964
N         7.16128560195630   10.40262960876405    4.21306398847811
N         6.67672196074339    7.15982196780731    4.21235077193373
N         9.91927400583213    6.67534937329486    4.21378750327140
N         6.10079853650373   11.94306436624378    5.40117140583427
N         5.13540172250060    6.10228414955947    5.40189631271399
N        10.97813076587611    5.13485388044620    5.40319338034515
H         5.57152766230366   12.35174916655353    6.15311548983035
H         4.72636142042137    5.57414960523987    6.15440766648307
H        11.50598246937919    4.72605610895373    6.15603281198478
C         6.46984462276584   10.64196802531105    5.28665680316848
C         6.43701152618331    6.46914201346611    5.28637696187854
C        10.60919619663602    6.43593391787376    5.28837017793653
H         6.22961008701337    9.90274759815773    6.02768303707118
H         7.17634426821242    6.22782330407406    6.02691058122377
H        10.84842371603075    7.17510913343712    6.02973997183982
C         7.27745527555354   11.60594719310713    3.55737254060280
C         5.47309228400704    7.27786067559260    3.55755997920236
C         9.80395226498887    5.47206827479214    3.55788415478867
C         6.60481803568020   12.59890057980247    4.30373691621968
C         4.47957967159344    6.60707043284819    4.30482741111417
C        10.47556556284838    4.47906664732618    4.30508401981669
C         6.55590026810152   13.91984109104016    3.88565912221236
C         3.15827668490072    6.56017989060912    3.88769388134259
C        10.52514351359021    3.15819588959787    3.88690349862812
H         6.03950647370150   14.67581162148570    4.45844453892105
H         2.40188210680807    6.04515196065910    4.46112832135970
H        11.04091652682173    2.40221791908050    4.46021630014953
C         7.19771123522663   14.22139048900491    2.70099706980506
C         2.85689452639135    7.20217767532851    2.70309630078431
C         9.88490965341972    2.85671550795506    2.70138053535803
H         7.18350264851031   15.23876742407183    2.33869638193052
H         1.83924482726950    7.18954392447483    2.34154058918451
H         9.89970446715765    1.83939822710620    2.33896729420784
C         7.86299581032990   13.24369224329175    1.95597462669006
C         3.83511543047209    7.86576623092989    1.95724259798134
C         9.22044612109970    3.83442422180042    1.95563800781563
H         8.34514387187467   13.53301822689084    1.03433431501298
H         3.54588659373401    8.34818369443315    1.03572671888962
H         8.73940384243897    3.54512150821510    1.03342500899047
C         7.91577753947001   11.92730141666558    2.36338880746271
C         5.15188813320780    7.91645874959918    2.36369576923564
C         9.16711874338811    5.15077707245834    2.36310681855241
H         8.41513671119269   11.16113310637243    1.78993941778956
H         5.91845683191222    8.41433671759571    1.78952634711296
H         8.66845253380581    5.91696935813897    1.78911526970705

