45
CSD_code = WEHTOT | q = 0 | S = 0 | Stoichiometry = C18H14N6O4S2Zn | MND = 6
Zn        4.74191719083267   14.88890357656472    7.04405709693457
S         6.51331529980710   14.63469475369038    5.65008922737983
S         7.21263209406356   15.57406351182217    7.34113089443868
O         6.14033253684688   15.21878156005048    8.33093799198434
O         7.18384722200362   16.99426517656907    7.04932041932982
O         8.49025824195807   15.02796892181365    7.69255551715242
N         4.35171035733176   17.02545376122658    6.84541716174352
N         3.35156294095809   15.25221794295955    8.46111726445994
N         4.31287248954946   12.90066928445446    7.84229294426513
N         2.81296302878033   16.83577268259650   10.08507796317582
N         2.68487373165839   14.53867024028808   10.57727143228737
N         1.31931927159067   15.09287066277532   12.83937471912077
C         5.05128572575360   17.83186808460236    6.06619132892014
H         5.41152200655245   17.40998600105400    5.13795122115139
C         5.29108400723067   19.16588847430075    6.38610484870471
H         5.87364208468918   19.77957081467914    5.71893083370577
C         4.80954619177389   19.66132690285690    7.58253966003439
H         4.99591745353874   20.68444838416107    7.87346492668355
C         4.09480487819445   18.81378519357940    8.41779769877153
H         3.71447257665087   19.13474355213381    9.37407099645105
C         3.89945672253795   17.50128428168560    8.01397743364009
C         3.29454988277757   16.50674181706693    8.89951399123767
C         2.43021199204646   15.81442157155307   10.85867188600224
C         3.17665514452511   14.30377448639851    9.37613162829026
C         3.65588801682270   12.97206958559485    9.00367293957584
C         3.51312587419161   11.88222938630026    9.85590133948103
H         2.97747288815361   12.00916580519882   10.78305393536318
C         4.08396063839811   10.67702097750791    9.48034280898664
H         4.00217984207312    9.80972447534459   10.11834688609150
C         4.77062810266030   10.60949168896857    8.27753539388453
H         5.23849417797801    9.69303144920159    7.95465920014423
C         4.85929594753857   11.75110062383514    7.48987179599653
H         5.39530212549326   11.75288251067984    6.55008972150308
C         1.74867002011085   16.12436665555566   12.11570325710854
C         1.56708411830357   17.45157169964233   12.51073493412519
H         1.93482815007048   18.24629500857146   11.88311585063028
C         0.91823418647024   17.69936366728083   13.70784301327380
H         0.76075134861644   18.71271352541165   14.04756097173603
C         0.47550346977191   16.62364054925162   14.46171333946554
H        -0.03365873776936   16.77226051277748   15.40108056146040
C         0.70403485384689   15.34042013181904   13.97505811688481
H         0.37515217732325   14.46883675263371   14.52565622731695
O         3.24316691331560   14.43704116541766    5.29815709106836
H         3.84388182730511   13.91867621522412    4.74956516598198
H         3.10565098767193   15.26132597488707    4.82234836406495

