102
CSD_code = WEHVEK | q = 1 | S = 0 | Stoichiometry = C40H50IrNO9P(1+) | MND = 6
Ir        1.52182732331166    0.43345402000745    3.85500527106455
P        -0.76288954305932    0.27917466701742    4.59637224110275
O        -0.50380489851083   -1.77240364708592    2.99417091471202
O        -1.00934740288273   -5.46458969055245    6.11230161674685
O        -0.92637047004215   -0.93964848256835    7.52143474162616
O         0.85948101337554    2.42448918628877    5.76056151038562
O        -2.19251301597719    3.94987450043304    9.05494154484874
O        -3.20297694553627    0.19819938080390    6.15116986156668
O        -3.18573667509767   -1.62825068975096    3.67385110818301
O        -5.47715254279984    1.67809894233799    1.19822671006308
O        -1.38168460299842    2.67593037438240    3.59128107494502
N         1.91727208947237   -0.82951806472005    5.42553633753937
C        -0.90525123008223   -1.42370240736218    5.22256151682888
C        -0.74175289583000   -2.35724737714666    4.19776532875845
C        -0.78215109856281   -3.72254550603186    4.43003277076255
C        -0.94553543627246   -4.16187904377070    5.74004248748777
C        -1.01016837253658   -3.24393267587237    6.78680142817667
C        -0.96329673673404   -1.87952529338905    6.54135995746112
C        -0.60356592065744   -2.55915076242060    1.82945907075084
C        -0.95233293582459   -6.46391430901723    5.12014027304020
C        -1.09177411840700   -1.34238929044998    8.86021877521782
C        -1.19660345846237    1.33997661531497    6.00677982867580
C        -0.33118648489098    2.35324897062706    6.42053536266841
C        -0.69658485101478    3.20697949294664    7.44606482168614
C        -1.93860522992144    3.06040713425861    8.06513496970883
C        -2.81389583418710    2.05972245648229    7.65944611563686
C        -2.43929909159541    1.20591988171894    6.62894290093334
C         1.71145380386982    3.51490201289642    6.03744580806634
C        -3.42379375622918    3.88655983763460    9.73752634349543
C        -4.44690446487072   -0.07018681513474    6.74863513752549
C        -2.25825163591482    0.54135856301457    3.56755865961204
C        -3.26949196122599   -0.36125194229336    3.20360885346026
C        -4.31926093643292    0.07010821133475    2.40648622850847
C        -4.40551936309412    1.39087582667174    1.97255612587836
C        -3.43325545866435    2.30753070707333    2.35416980729772
C        -2.38221856094904    1.86811732676536    3.14459188860599
C        -4.23929678581733   -2.52794584208646    3.42408693184312
C        -5.63928942586606    2.99166923618611    0.71290643443061
C        -1.51683062920785    4.07167866281992    3.44495576773216
C         2.05788653603828   -0.36358496273879    6.66819058717124
C         2.32577669864863   -1.17551138982681    7.75409320140305
C         2.45249302010197   -2.54191417081119    7.56035935536715
C         2.31495780402517   -3.03078823715207    6.27026151170396
C         2.05264359211054   -2.14715738119792    5.24189965257404
C         3.17353668284906   -0.10134516609151    1.27344057999053
C         1.76798351672748    0.32518116756739    0.80937359006010
C         0.99306541886404    1.07143748510519    1.87248386336873
C         1.50473385078712    2.16742619585884    2.57064933510713
C         2.86671868973489    2.76818972154299    2.27777329713317
C         3.97962499998295    2.15426124202880    3.14681578011065
C         3.63491164777197    0.76679062188983    3.63645836604915
C         3.25677681690597   -0.27311432697465    2.77553986538298
H        -0.67799104933320   -4.42371276213936    3.61994843087697
H        -1.09280593357704   -3.64242243384844    7.78343342339855
H        -0.61005059587416   -1.86374539687902    0.99217794186567
H         0.24952558740337   -3.23847616847538    1.72914628818245
H        -1.53145734562839   -3.13604431760625    1.82020036482137
H        -1.04920469887375   -7.40923391884807    5.65061968316609
H        -1.77337816930317   -6.36681742252592    4.40351501235774
H         0.00303479403006   -6.44722665411915    4.58623988738183
H        -1.08780391864594   -0.42178874685224    9.44234513339369
H        -2.04079622534868   -1.86501152913593    9.01023600871932
H        -0.26953529246294   -1.98455874816921    9.19144236787844
H        -0.06003938901353    3.99861115530707    7.80220104238451
H        -3.77341190853073    1.94961150509239    8.13451381373516
H         2.54137327046192    3.42331634329799    5.34182607508863
H         1.20550769217317    4.47080848059630    5.87640809031909
H         2.09088207601668    3.48123842827555    7.06370584729347
H        -3.39344680140103    4.69015402140929   10.47098163161426
H        -4.26757354754048    4.04876976284954    9.06013889488621
H        -3.54754268598407    2.93058158689520   10.25549006607917
H        -4.83151580346384   -0.95402055820833    6.24274044543233
H        -4.34398850588914   -0.28561023841155    7.81689998041066
H        -5.14845364351101    0.75897031415468    6.60956461578119
H        -5.10959963376199   -0.59361849868312    2.10075850945395
H        -3.49309502760775    3.33589362447681    2.04394119687727
H        -3.97386925249823   -3.43821798990628    3.96106123331893
H        -5.19364290679035   -2.15099442012166    3.80305838246243
H        -4.34061591034576   -2.75140838937851    2.35691685745442
H        -6.54929083713974    2.97316954595191    0.11627989213622
H        -5.75884916207522    3.70955664555116    1.53005699511502
H        -4.79868365432967    3.29173831923713    0.08015226537121
H        -0.69764704161488    4.51498547823278    4.00859013022479
H        -1.43793827982099    4.37638470903650    2.39642683949918
H        -2.46459448202775    4.42469293216244    3.86063917346151
H         1.94708557323660    0.70130607586265    6.79549250251096
H         2.42872540619971   -0.73930726611211    8.73489391116847
H         2.65473144640601   -3.20635446127944    8.38582586697414
H         2.41059406508066   -4.08423428910142    6.06333907203373
H         1.94001639886989   -2.51019776686292    4.23191895363097
H         3.91618827645469    0.63280952958460    0.95999378038831
H         3.43205947959223   -1.04454915589074    0.79104728564853
H         1.20070469495595   -0.56377379086751    0.53631527179077
H         1.84106572693707    0.94825298968304   -0.08719092395469
H        -0.08560436141362    1.00779522504551    1.74603675275065
H         0.79119794992378    2.86784262401343    2.98417060597996
H         2.82787370498818    3.84321884641967    2.45767425716649
H         3.09358246714888    2.62864056494696    1.22059389137764
H         4.16292894208942    2.79078022969600    4.01369470245932
H         4.91813560400636    2.11272828553930    2.58479822611711
H         4.16269502034076    0.49280074664701    4.54969538002398
H         3.49656715306304   -1.28499801313134    3.09213843114157

