78
CSD_code = WEHVAG | q = 1 | S = 0 | Stoichiometry = C34H38IrNO3P(1+) | MND = 6
Ir        0.46978739471126    2.49269904346698    2.56057120637571
P        -0.72466675335558    3.39041627881075    4.38427781336476
O        -2.14552281754171   -1.28528868178961    7.78916194391783
O        -5.62933035216213    6.21764612534938    2.55162795134985
O         1.54802695266920    7.70239126402373    7.82612436392777
N        -0.77947651216217    0.88236148785285    2.71657688740251
C        -1.26862704127730    2.04971062318023    5.48957052934822
C        -2.59493983045334    1.68834115364514    5.67651481954412
C        -2.93042108157036    0.58585630852316    6.44298526120722
C        -1.93425129395437   -0.18732924377766    7.03424491927275
C        -0.59373697627747    0.16019396426486    6.82710948503980
C        -0.27073755214173    1.25012783741789    6.05527413893953
C        -3.46937754292632   -1.68465281110188    8.06825664338145
C        -2.24747550367624    4.23295426885348    3.87183323242416
C        -3.12096148985169    4.77474130396036    4.80978241127602
C        -4.26287425141382    5.44094358403154    4.41092242453336
C        -4.54829097036588    5.58972337270032    3.05240681734061
C        -3.65707877937866    5.06479794785658    2.10882297769243
C        -2.52348303228130    4.40074455455986    2.51644884844977
C        -6.56394339365550    6.79683919051556    3.43642811284207
C        -0.03608905635594    4.64469909178247    5.51675586620931
C         0.48580937971939    4.34825227626263    6.76935718464823
C         1.01976216796837    5.33959814838705    7.57282140788875
C         1.04956681472861    6.66110779273115    7.13227123412162
C         0.51744191408782    6.96354211489047    5.87242293149443
C        -0.01295495403270    5.97350877834748    5.08211171277275
C         2.09354694044979    7.47837568886583    9.10825479183441
C        -0.39045449576335   -0.19342913338882    3.41151449309040
C        -1.21901337440885   -1.26924446537711    3.66457357692365
C        -2.51677315458242   -1.24903373621365    3.17822390024370
C        -2.92081931300470   -0.14396418391834    2.44440518926236
C        -2.02838754378779    0.88978192451583    2.23800740079865
C         1.24879031282192    4.41093498242601    2.00820639002040
C         2.21299745663371    3.74015510405600    2.76446402811682
C         3.46490889475077    3.13653473903532    2.16212913999681
C         3.28005434913308    1.65697355310500    1.77441620795893
C         1.86529694262448    1.30811390002295    1.38498098106104
C         1.07870782673642    2.03624999905056    0.50590046707296
C         1.57226163068636    3.25326042405110   -0.24277809896018
C         1.28735288849669    4.56928564931500    0.50647444518173
H        -3.38329497302759    2.26763819380400    5.21828600986983
H        -3.97194579118827    0.33821373306216    6.57150300576680
H         0.16787487298918   -0.45423622927359    7.28025402634931
H         0.76832284050705    1.49206309868222    5.87196855788451
H        -3.38196789060246   -2.56323879772256    8.70426046771191
H        -4.01830901967049   -0.90432907696173    8.60272733696816
H        -4.00816605451602   -1.95155745859143    7.15397116000466
H        -2.89836896699904    4.68003910286610    5.86369207192546
H        -4.92114591822084    5.84852607477710    5.16126567264346
H        -3.88275719281350    5.20552040065732    1.06375652912818
H        -1.82193693232476    4.01993206386317    1.78437847614382
H        -7.32807327891288    7.24299591138509    2.80307279100994
H        -7.02401536827060    6.04297593750653    4.08194987168474
H        -6.10317603120511    7.57563832049627    4.05072157849530
H         0.46184704313046    3.33671153227033    7.14474306207970
H         1.40603894349898    5.07078934745289    8.54301626974431
H         0.53133355978002    7.99108983362350    5.54634952372630
H        -0.44270458990117    6.23257957238777    4.12456888496588
H         2.42021462059017    8.45445259106425    9.46145036368800
H         1.34456299322174    7.07651191399752    9.79691785981911
H         2.95300632635025    6.80294757761664    9.06424295944141
H         0.62483796379697   -0.19174045780114    3.78164927335635
H        -0.84943455402069   -2.10595281995401    4.23458389876366
H        -3.19044086006473   -2.07132067769360    3.35939823095254
H        -3.91553367588489   -0.08042358711163    2.03406179531484
H        -2.32665062425246    1.75874761433488    1.66928719551241
H         0.69774797390586    5.20956217217065    2.50265782920320
H         2.31173740864182    4.03575027235579    3.80885814554322
H         4.27655020521781    3.20680358027162    2.88639206101328
H         3.75781299314210    3.72469621131117    1.29279968071373
H         3.56158284741505    1.02902942885427    2.62148571003085
H         3.95218054931960    1.40057435012468    0.95016143819887
H         1.63010951797103    0.25316659306852    1.51289015983180
H         0.24730568859278    1.51713771365115    0.03325800189552
H         1.08142987185589    3.29306451943883   -1.21554083143282
H         2.64110803326660    3.14466571877284   -0.42522372341030
H         2.03991662134853    5.31869182289243    0.24512237099003
H         0.32187604816669    4.96316368236426    0.18390824718796

