83
CSD_code = WEHVEL | q = 0 | S = 0 | Stoichiometry = C42H15F20OsPS4 | MND = 5
Os        9.00746922975040   32.75954804228640    0.86794397700044
P         9.05606480276767   31.41686727760211   -1.08970868123035
C         7.59683397553914   31.49973260028469   -2.16627283284941
C         6.34658403892572   31.40497300030177   -1.55976953469566
H         6.28297878035943   31.32823873401969   -0.48189587480160
C         5.20119049232532   31.42364972798678   -2.33241421294923
H         4.23336365653899   31.35731822403426   -1.85950210385987
C         5.29736788780411   31.53448944259052   -3.71084939195041
H         4.40258229583190   31.55448311530548   -4.31449878213161
C         6.54012196260894   31.62412335127212   -4.31595349325355
H         6.61396962324248   31.71147675812675   -5.38975223290094
C         7.69232956645261   31.60691982134631   -3.54976870066922
H         8.66043736104531   31.68726406941233   -4.02412016251725
C         9.34317582673939   29.62763909728021   -0.95376715774474
C         9.53798520309520   29.01311020446097    0.27680332725309
H         9.52523315845117   29.60044531041011    1.18356053441433
C         9.74940777277500   27.64664576244036    0.33936253892973
H         9.89772467158237   27.17494425915079    1.29844357579198
C         9.76675234010098   26.89273055192146   -0.82182404557719
H         9.93036199881950   25.82683930937743   -0.77177929867182
C         9.57207218481735   27.50437182602854   -2.05142058197001
H         9.58527642329921   26.91592155365747   -2.95665521176257
C         9.35792456409433   28.86737241171101   -2.12181765513435
H         9.20252989653551   29.34812443063258   -3.07752211058181
C        10.44249144759432   32.04804987705662   -2.06975362669103
C        11.66191711838023   31.37809167820575   -2.10941818008221
H        11.76375842569196   30.41761194439141   -1.62419874255993
C        12.73729396746332   31.95228168813127   -2.76342227784202
H        13.68369901571691   31.43359488569707   -2.79345925601413
C        12.60708680998221   33.19381202629003   -3.36397517034951
H        13.45322392254810   33.64398802606043   -3.86014580498084
C        11.39586624560672   33.86730186517750   -3.31793496812078
H        11.30043348145250   34.84087854968695   -3.77374738757123
C        10.31528371674767   33.30146585385257   -2.66962324845531
H         9.37050171394476   33.82629104794713   -2.61209440885831
S         9.23071432526337   34.38733433783430    2.68043057580699
C        10.21079513964602   35.65931534805841    2.03893185967639
C        10.44160599359085   36.80420516610754    2.81663639818746
C        11.20271556141800   37.86328702857075    2.34982305697420
C        11.76601904441151   37.81603115588243    1.07419977500795
C        11.56023541598314   36.69189943817182    0.28163149287527
C        10.80257234331749   35.64290274496503    0.77278162213970
F         9.91048326817393   36.86987818218869    4.04252195161475
F        11.39887962318666   38.93253585690755    3.12010693025539
F        12.49286839206393   38.83780232393001    0.62080962259630
F        12.08216619479136   36.61638177798041   -0.94274564550823
F        10.61680598613303   34.54838784622172   -0.02190262388196
S         7.68721209918353   34.20976235749505   -0.34857411656965
C         6.92097013270842   35.35918140153054    0.73627832073225
C         5.78611266297614   34.96655887133303    1.44794666736268
C         5.12353903226341   35.84273389475066    2.29632476617836
C         5.58971066538234   37.14808395326910    2.43894153415996
C         6.70250962620211   37.56795542768949    1.71329240480579
C         7.34439512329549   36.68196057316869    0.85876694491267
F         5.34325027251727   33.71600896476020    1.30498840871691
F         4.04324093751675   35.44404002725789    2.96370691402409
F         4.96383798074994   37.99666467544353    3.24918353812123
F         7.14586645782195   38.81959014091314    1.82938449619924
F         8.39747256603416   37.11080411151364    0.15039446884366
S         7.53975591081463   31.39543879320206    1.88101165871244
C         7.69836548521327   31.53893514929910    3.63465494175802
C         8.29518057789143   30.48847602801398    4.33412071386024
C         8.40432114658871   30.50955541656279    5.71850265825331
C         7.90754699209911   31.59650766911057    6.43418009569340
C         7.29010716523161   32.64477949679968    5.75605046600822
C         7.17790259069030   32.60119064684809    4.37105877856402
F         8.78703758545656   29.45034366995062    3.65820272518087
F         8.98042278971269   29.49471183835720    6.35988281102226
F         8.00745092496637   31.62461131152365    7.75897051087451
F         6.79188840849073   33.67595332777202    6.43334545090280
F         6.54799098483687   33.59319512757241    3.74448894758937
S        11.08645902923820   31.89864554049327    1.31308987434730
C        11.90476632666813   32.86331760862265    2.53335115847163
C        12.87585236532752   33.79759825209852    2.17216668399260
C        13.49979595823635   34.59589246707986    3.12428987619191
C        13.18624522445807   34.44904679108581    4.47253697181490
C        12.24635087683516   33.49427469469720    4.85823293546435
C        11.62364078503967   32.71761559051743    3.89257466150879
F        13.20151943252917   33.95056208864602    0.88571953101103
F        14.39193704216730   35.51117532709623    2.74100778128642
F        13.78241172283405   35.21079477538672    5.38429951033421
F        11.94200566084534   33.33158601417494    6.14407678036923
F        10.71357259054509   31.81529044498566    4.27137629695168

