112
CSD_code = WEHXOZ | q = 0 | S = 0 | Stoichiometry = C43H62BN5Ti | MND = 8
Ti        3.86787807388158    2.93022340057703    2.57846587470497
N         4.01063442277546    3.55423471698447    4.15778991954168
N         4.31264565386186    5.61764735877082    5.67400928121991
N         4.53357560916053    3.55903606979497    6.64966399128899
N         5.70937422457380    2.92185041194739    1.95346259825588
N         4.30146426490858    0.87619087164712    3.01835724728600
B         4.25086167701039    4.19313460089466    5.36545535851583
C         4.62470030214260    5.75723520046079    7.01698453796059
C         4.77452639775797    4.55070537533052    7.58575307661199
C         4.12641115754291    6.76918963741119    4.88980199612660
C         3.07668218661876    7.65137330750185    5.19183237243008
C         2.92828650809590    8.80435764354450    4.43269840163712
C         3.79289739521455    9.08608473548788    3.39593664253862
C         4.83040332556173    8.21695315046128    3.10882328579633
C         5.02098717202986    7.05469570927435    3.84194424852029
C         2.10997348309896    7.39336093236433    6.32909067895088
C         2.29040334555253    8.44599688739095    7.42780145878924
C         0.65348515471946    7.39119219696906    5.85761131242872
C         6.18295934883553    6.12318367266168    3.56155524068009
C         7.18303516993477    6.14096843131100    4.72547572162637
C         6.95479948305347    6.46162283090531    2.28634819602673
C         4.69251577000893    2.20789851002737    6.99908504879740
C         5.98056793162058    1.67731344619154    7.15981698753972
C         6.11011478151629    0.34026003706377    7.51113217872314
C         4.99737355088943   -0.45293289693325    7.70993011130009
C         3.72922971714893    0.08263598474666    7.56977390191761
C         3.55530040375548    1.41084673608957    7.21045212920724
C         7.20727852169389    2.55040607031485    7.01632407765053
C         7.88313618008650    2.70963587413370    8.38253779766184
C         8.20610945387959    2.00741931943320    5.99290313300968
C         2.18257545735221    2.04089479969164    7.09360834461824
C         1.05757613433720    1.03805945099186    6.83695108310911
C         1.87324830948257    2.82864556692474    8.37239675937943
C         6.54803077064657    3.44765389898345    1.02317575025190
C         7.76373275969175    2.80411641863489    1.05424582016548
C         7.66885394428006    1.81416547691198    2.05234900878435
C         6.40214384623376    1.92287521490638    2.58249339799184
C         5.64788754823971    1.10431503008511    3.58322260627040
C         4.44260226213447   -0.05248333479184    1.89711990105639
C         3.42003803691848    0.30152677281243    4.02729725236473
C         1.59540127462157    3.03303141074172    2.25511062483040
C         2.02026222986507    2.16695885816775    1.20784065529737
C         2.91043710429522    2.89092029388907    0.37692550664262
C         3.01946066179312    4.21232000033938    0.88895896498151
C         2.18707122022657    4.30777426007178    2.04161412369777
C         0.52433922697581    2.75555030963416    3.27349819234249
C         1.31537725664248    0.88372170307244    0.85340137332881
C         3.53485699017195    2.42045181973372   -0.90735581724327
C         3.65069011167841    5.39099753643060    0.20226147633984
C         1.81149929745259    5.56095875483923    2.77503847220003
H         4.75545728699306    6.72529902923661    7.46175498644031
H         5.03309653413868    4.31127621852499    8.60054091583834
H         2.12827405875347    9.49415344820590    4.65606169142251
H         3.66814891837290    9.98813171765805    2.81426148223148
H         5.50543494381360    8.47075632268043    2.30756887954257
H         2.32162662819860    6.40900806929329    6.75596017361972
H         1.64159222265369    8.22418514173175    8.27291215121991
H         3.31839013055943    8.46827945164373    7.78134646254003
H         2.04142705965837    9.43654993868463    7.05397545880731
H         0.49841978349103    6.64477660353319    5.08385843301687
H         0.36609664889505    8.36091698407293    5.45949309725169
H        -0.00266477935292    7.16139026865265    6.69524239413400
H         5.77028146642229    5.10373893479078    3.45705262150525
H         6.71697396944261    5.85522024096679    5.66188410349032
H         7.60161499724343    7.14032319206084    4.84083559389904
H         7.99439090489139    5.44588377306650    4.52036544607983
H         7.48761371113695    7.40553638312731    2.39277234424656
H         7.68587000938410    5.67906006728838    2.09702173381419
H         6.29820353159842    6.52370773475905    1.42262528262866
H         7.09368045507325   -0.08521809174512    7.64386973289602
H         5.11557865330065   -1.48955094147341    7.99134918229639
H         2.87205479217243   -0.54575145046336    7.75384355706037
H         6.89136289651138    3.53846388765832    6.67245261811340
H         8.26043508556728    1.75427536889559    8.74042389084266
H         8.71701588145975    3.40439035000637    8.30999393713217
H         7.17921250359346    3.09429277854910    9.11703247149319
H         9.10263451431018    2.62387208500865    5.99993437620340
H         8.49695855916167    0.98545182543218    6.22360212743072
H         7.78546179378554    2.03557737841009    4.99125837056897
H         2.21745105958723    2.74798442846452    6.25503651300376
H         0.86431953855362    0.43593322091194    7.72216195734200
H         1.29500662358644    0.37494957968708    6.00854105646868
H         0.14211450606171    1.57393779394696    6.59494557621824
H         0.88432729848853    3.27785698812964    8.30706076503491
H         1.89686717015503    2.16640125041902    9.23619667699021
H         2.60106561248522    3.62090326910885    8.52264749935669
H         6.24479201902025    4.26225185713190    0.38817364027219
H         8.61684249804671    3.00943436467722    0.43533367159212
H         8.43207289002985    1.11599901897704    2.34340748395427
H         5.52190786207031    1.65763698998845    4.52399507246246
H         6.15613535749170    0.14649940110488    3.78711663426588
H         3.47392574701526   -0.27744541893432    1.45678463071158
H         4.89289963252662   -0.99733188062226    2.23771597644265
H         5.09456750324236    0.38121669153891    1.13585770604168
H         2.44389432591111    0.07969037090448    3.59050294228712
H         3.30079530167796    1.02568152388965    4.83493931023964
H         3.83922715270064   -0.63000490234569    4.43805177297972
H         0.37477842317076    1.68632843161773    3.42106248794560
H         0.78361275571727    3.20614842649888    4.23257146418580
H        -0.42788735870174    3.18402040963054    2.94641493726412
H         0.32610089709197    1.12312484946033    0.45189594938395
H         1.15803262356737    0.23257597753863    1.71562203451273
H         1.84512135448858    0.32240316231664    0.08484475688048
H         3.15192339932501    3.00205944752244   -1.74916169317322
H         3.30763082125888    1.37309601865236   -1.09893274958617
H         4.62134239393308    2.53354669547864   -0.89074846327963
H         4.33267867458226    5.07229156216128   -0.58413170930253
H         4.19152911765060    6.01430845111828    0.91681054373104
H         2.87430745062646    6.00802791112501   -0.26022561551788
H         1.89647052197421    5.40920667116583    3.85057218825137
H         2.45884606712324    6.38991426781430    2.49744578424872
H         0.77896248836913    5.83538199586003    2.53932737984609

