83
CSD_code = WEJBOE | q = 0 | S = 0 | Stoichiometry = C28H48Cl2N4Ru | MND = 6
C         4.77032397813022   14.13399569141352   20.00896963563362
H         4.66988203572492   14.26794198974546   18.92510862508121
C         3.36576866387774   13.98255831565679   20.60897683788760
H         3.44250397956883   13.81593166236825   21.68506926654586
H         2.81170343208141   14.91041189253384   20.45611966614643
C         2.65263270088895   12.80178867623208   19.96093225234778
H         1.65906955860488   12.68921452412217   20.39791533918781
H         2.52729240878134   12.99097944541291   18.89248938258599
C         3.45687792267441   11.51959258177164   20.16139227100794
H         2.95329605484111   10.68414402021633   19.67160654631114
H         3.51655816989750   11.29361952190067   21.22848590671179
C         4.86795705777922   11.67163350700513   19.59867046746497
H         5.43879267723639   10.75734234620926   19.77298336551472
H         4.81349291226325   11.83034482911084   18.51896532364401
C         5.58234882426037   12.85430959881727   20.24644955325978
H         6.58149975218360   12.97543501523047   19.81923509702962
H         5.69176860845159   12.67177871563718   21.31710987663823
C         5.70169218345950   15.42428580992449   21.77962191332729
H         5.47056082697003   14.64457591817728   22.49652217946035
C         6.35448861282133   16.61059377640370   22.16942820427212
H         6.64257413440594   16.78155709941937   23.20057179053450
C         7.29487275442612   18.69456607374933   21.47460082753064
H         7.66642121821712   19.05376984619018   20.50816102136322
C         8.47474454779048   18.59687454179618   22.44626383681732
H         8.13011547120334   18.32554801321581   23.44607236385255
H         9.17540482689374   17.82790487971999   22.10855413530271
C         9.16731079688813   19.95451467906861   22.52057218212520
H        10.02722521312730   19.89424514531139   23.19174431026673
H         9.53230218331007   20.23089259354186   21.52892564536830
C         8.19005340761919   21.01685364708551   23.01676769485463
H         7.87176267767990   20.76777594193292   24.03227828803441
H         8.68693639695070   21.98822267364050   23.05224188839478
C         6.96795345385276   21.09164814368865   22.10553192669036
H         7.27175375616750   21.41802766065811   21.10921510708357
H         6.25700550569762   21.82194638206161   22.49549834794215
C         6.28754447052119   19.73371347200507   21.99209248287657
H         5.90175553177988   19.41244073251050   22.96311435946208
H         5.44997474882212   19.79171474196139   21.29383036046462
N         5.43013916098210   15.31840100007257   20.50729803223071
N         6.61424926161210   17.45006809517987   21.20821837944637
Ru        5.73278697229868   16.97232632773639   19.49859903441014
Cl        3.74566403141526   17.73028203893407   20.50306248950768
C         8.67207843350014   16.38620169281569   18.98845099181488
H         8.60596382537908   16.53752780489704   20.07266864046106
C         9.50586774745430   17.52817741361581   18.39148774358972
H         9.61230343278417   17.38082344872077   17.31511307850552
H         8.97938411426535   18.47164913310856   18.54618151340923
C        10.88464100935044   17.55377880652926   19.04037518984051
H        11.47920329164620   18.35893862599262   18.60563755741912
H        10.78288478629916   17.75442367462569   20.10923578815501
C        11.59297348689634   16.21661544071360   18.83721449713285
H        12.56794696260405   16.23379189642000   19.32770953418023
H        11.75955024447149   16.05449643420166   17.76984677715067
C        10.75534700790225   15.06928291194855   19.39662259474657
H        11.26174946194659   14.11817661383414   19.22022934643262
H        10.64452368345262   15.19312447255908   20.47657561222049
C         9.37429909085042   15.04365432744483   18.74798617883440
H         8.76952703105792   14.23787434514018   19.17278660564879
H         9.47829393510383   14.86035774846338   17.67692561800042
C         7.08934364534375   16.22805512813907   17.21708605288207
H         7.88028935671919   16.03958267817139   16.50000610777015
C         5.73558379879567   16.25575480488905   16.82720341155858
H         5.44382050620591   16.09340693565311   15.79570178970069
C         3.46029276932508   16.48048440462553   17.52169705609342
H         2.96308922411123   16.33703030251345   18.48776866051412
C         2.95622859166481   15.41039416275018   16.54873484242951
H         3.36456174792846   15.57401204873831   15.54948991856397
H         3.27182887296814   14.41899229152440   16.88608801541683
C         1.43425711637236   15.48886332246064   16.47271221696375
H         1.05766200706297   14.71442637672332   15.80041073906097
H         1.01128748385252   15.30992961941907   17.46369300051218
C         1.00287276807692   16.86660114179682   15.97720561043602
H         1.37906682215235   17.01888190691958   14.96236705144703
H        -0.08676773755715   16.92148157377411   15.94027462241488
C         1.54739630615780   17.96168748931893   16.89028092831980
H         1.11173958382502   17.86038852308874   17.88597103160706
H         1.27028385221471   18.94282180470231   16.50110160465967
C         3.06352667438062   17.87271854013412   17.00531657460622
H         3.53557186159569   18.04760469934656   16.03500150534742
H         3.43083660639022   18.62653580904549   17.70479984358385
N         7.31662929344216   16.40836463751302   18.48973422272964
N         4.87835567388906   16.44821281164655   17.78856426795775
Cl        6.06894474795839   19.07210262870581   18.49427744326475

