76
CSD_code = WEJBIY | q = 0 | S = 0 | Stoichiometry = C28H40Cl3N3ORu | MND = 6
C        13.05770747694665    7.98093188840670    3.98328126123149
C        12.38933756045262    8.42347975763835    5.13691749564575
C        12.40462681155297    9.77516817941129    5.44116577090896
H        11.88774467137693   10.12749995546498    6.31930693838453
C        13.07504420003058   10.67640309688658    4.63711054265391
H        13.09326152192546   11.72398792429144    4.89645191509293
C        13.71429969124856   10.23259997126763    3.49797437215964
H        14.23123296112596   10.94147713022048    2.87104044610387
C        13.71182063608259    8.89163952780806    3.13807403690696
C        11.59760877164881    7.46917136476141    6.00224761892071
H        11.86517634618002    6.44002543652404    5.72896851778834
C        10.09966316331280    7.64441301414785    5.73252158095309
H         9.78708950936527    8.65781156483115    5.97176469273150
H         9.52521346635745    6.95244026720973    6.34431657362044
H         9.87009093232935    7.45446608061363    4.68577484787929
C        11.90535412035365    7.66051514146366    7.48821967937744
H        12.97950933660409    7.69508294643816    7.65218171705161
H        11.49404058697213    6.83409658828102    8.06371020934238
H        11.46975244496542    8.58187466890029    7.86459478018948
C        14.42808448747554    8.46766329479093    1.87893200839942
H        14.28463882884260    7.39617967738388    1.71752503182153
C        13.88633354848473    9.21151060945376    0.65441702766974
H        12.80630660690232    9.10374168174548    0.56923570453953
H        14.34440538765473    8.80985632329127   -0.24627266702988
H        14.11827492479395   10.27211882098073    0.70566123140068
C        15.93226479132893    8.70735321744243    2.02946568630487
H        16.15375448587232    9.76647218526382    2.13529958451977
H        16.45483751030657    8.32470414042356    1.15625105184930
H        16.30410029072348    8.18862997681381    2.90894278962694
C        12.32822415206487    6.01180845555931    2.85239804349566
C        11.38638002021552    6.75782877734559    1.96330270029113
H        11.42156334554810    7.82135435067435    2.18565291219696
H        10.36609264169050    6.40084784149644    2.09278007941613
H        11.66630565594743    6.60377370028429    0.92203732263120
Cl       15.39649239419190    5.28448997586872    2.52856710774170
Cl       15.95334289750820    6.98115849577780    5.23913947156242
N        13.08369061128448    6.59575667742912    3.72848724481634
N        14.00856318095408    5.28410830067747    6.20183091975250
O        13.93414256829380    5.28421113818712    7.34867859654620
Ru       14.43410174331234    5.28426971354700    4.57937409687206
C        13.05776003917727    2.58755767839800    3.98322709062695
C        12.38931097751952    2.14503271391784    5.13683055213233
C        12.40457632253065    0.79335128490086    5.44110973579530
H        11.88763206964042    0.44103910189761    6.31922360894324
C        13.07505162426009   -0.10789978507684    4.63711870809176
H        13.09324892757825   -1.15547902905518    4.89648988997586
C        13.71438332326699    0.33587801244731    3.49801282271225
H        14.23136048607573   -0.37301575999209    2.87113225141834
C        13.71191828266491    1.67683238830049    3.13807460696652
C        11.59750890955576    3.09935154869056    6.00208347690134
H        11.86510846994475    4.12849580738014    5.72882931174029
C        10.09958610046000    2.92410873133803    5.73223855871109
H         9.78701014893089    1.91070776177913    5.97147055189614
H         9.52508756127812    3.61608035611608    6.34399021265549
H         9.87009021405367    3.11404282739368    4.68547295327791
C        11.90506787859546    2.90801191283411    7.48809296689823
H        12.97920024718604    2.87341353964202    7.65219668610648
H        11.49369934638488    3.73444328214233    8.06352724745034
H        11.46938681530436    1.98666579657505    7.86440914389169
C        14.42822150342450    2.10078691423068    1.87894939925610
H        14.28473864557518    3.17225726080011    1.71751326676314
C        13.88646874338862    1.35693227998725    0.65443543813092
H        12.80642107987912    1.46458391237735    0.56934533762780
H        14.34443058125609    1.75870799493480   -0.24625792328972
H        14.11855773622094    0.29635309324626    0.70560806174869
C        15.93241052784385    1.86117521499320    2.02954935848045
H        16.15396651317851    0.80207104372943    2.13539991641061
H        16.45499561820499    2.24385285853920    1.15635596173841
H        16.30419083943596    2.37993216142429    2.90903188610509
C        12.32826857199292    4.55668253882430    2.85234982180820
C        11.38644363266848    3.81066877127080    1.96322397223735
H        11.42171986029256    2.74712318259323    2.18546214989446
H        10.36613179585827    4.16755024418504    2.09279873620018
H        11.66628714890275    3.96485334296950    0.92195660716049
Cl       15.95323858266287    3.58739673973596    5.23928950888645
N        13.08374659257543    3.97273241753890    3.72842918327349

