70
CSD_code = WEJCAR | q = 0 | S = 0 | Stoichiometry = C26H36Cl3N3ORu | MND = 6
C         7.87265606143894    8.09438326500234    4.21958557785794
C         8.36711554827128    8.58589385456493    5.44039181642892
C         8.37730187511676    9.95376627227615    5.65664037400706
H         8.76403666451978   10.34233571828396    6.58511058743977
C         7.89977170116515   10.82699322267943    4.69808202918333
H         7.90117413495877   11.89004887839596    4.88516724103071
C         7.42584503821164   10.33504656606129    3.49917716331726
H         7.05326405342549   11.02265005062608    2.75651066902173
C         7.41069741770707    8.97440022455274    3.22425595206050
C         8.96597528880325    7.66224176707182    6.47559605646036
H         8.75588473092728    6.62387909564085    6.18744058850598
C        10.48878645539195    7.82611615931546    6.50588709854041
H        10.91870249088110    7.60350775386766    5.53099471101297
H        10.92253987436138    7.14887045348025    7.23806899225257
H        10.75963441577751    8.84381894014215    6.77467019358156
C         8.36082656962645    7.91111208837248    7.85834653724529
H         8.65238817689700    7.11824842256511    8.54357873765686
H         7.27536840850014    7.93644478408998    7.79682153594466
H         8.70273582365087    8.85608969089407    8.27096714884349
C         6.83565296193878    8.50183299217172    1.91181290451388
H         6.91195483101180    7.41432177786122    1.83654253487511
C         5.34576478883202    8.84836431956489    1.84996482131049
H         5.18667339849198    9.92364668988626    1.86257489019809
H         4.83186328583133    8.41288337338334    2.70350274398765
H         4.91042451924150    8.43994856783756    0.94135962320628
C         7.59567503609724    9.10639683727976    0.72817638444700
H         7.21892470736379    8.68583929268233   -0.20098556699626
H         8.66075447714829    8.89003950963764    0.79831604056268
H         7.46991222880622   10.18516604468108    0.68771515192233
C         8.53293837603773    6.10021176311955    3.13228697331350
H         9.21401725843734    6.64952915609059    2.48602778754844
Cl        4.89684450551185    3.66235802462706    5.26486278540918
Cl        5.60381467394757    5.39229663095675    2.65058723447130
N         7.82138963465274    6.70937733517713    4.03155053882357
N         6.67997653917635    5.38820735901383    6.42725983351118
O         6.58756983396390    5.38984285461524    7.57031292959174
Ru        6.43991696830802    5.38908351183356    4.76360951052550
C         7.87312432266800    2.68488896908400    4.21936445687794
C         8.36753135397097    2.19350572485158    5.44021199191576
C         8.37760637174813    0.82566842164068    5.65657173759597
H         8.76444349926940    0.43716894095697    6.58502215725877
C         7.89985949791433   -0.04759155986845    4.69814377678802
H         7.90127025444609   -1.11063184132288    4.88528651154016
C         7.42583369508179    0.44428679272258    3.49924339756472
H         7.05310089474776   -0.24333063818151    2.75666993928306
C         7.41081187074673    1.80489771347013    3.22420848060648
C         8.96639042163455    3.11728135387451    6.47531921139090
H         8.75605169714763    4.15562066460248    6.18720469071544
C        10.48922614400827    2.95358147553635    6.50518407195708
H        10.91882220845480    3.17632918967304    5.53018493631914
H        10.92308519147507    3.63084056965650    7.23728886470143
H        10.76029278486720    1.93589214507453    6.77380627720652
C         8.36174678479713    2.86835988534481    7.85828998876241
H         8.65342055863615    3.66128332817042    8.54340578827348
H         7.27627863808588    2.84289966206659    7.79714053952860
H         8.70391262235236    1.92344213630453    8.27084137392310
C         6.83548177980445    2.27747380370010    1.91189668793672
H         6.91208868153811    3.36492645335685    1.83646966581634
C         5.34550844460137    1.93122780574604    1.85030231860181
H         5.18616894064145    0.85597939992200    1.86315428910473
H         4.83185345993915    2.36698251533935    2.70383820280171
H         4.91007822021722    2.33957413580718    0.94170590703656
C         7.59513609311106    1.67270119723889    0.72817067557470
H         7.21830575581305    2.09338002050929   -0.20091527621723
H         8.66025213507700    1.88893071759994    0.79820590370900
H         7.46917449010522    0.59394288170981    0.68775247348014
C         8.53320596476120    4.67923112074450    3.13219993458789
H         9.21427615452484    4.13013639889450    2.48574299016388
Cl        4.89534555976896    7.11878202655950    5.26291510508166
N         7.82184275360903    4.06984534091508    4.03140279849597

