81
CSD_code = WEJDUL | q = 0 | S = 0 | Stoichiometry = C42H34I2P2Pd | MND = 4
I        11.55139230209073   12.72717549941156    2.65664070804851
I        11.55057307292536    3.22511340675824    2.65954099660121
Pd       11.55096200736924   10.08969439836159    2.65635301225514
P         9.39926319901312    9.97550923664675    1.99969282658054
C        11.55109656784468    8.11287642902452    2.65714102618672
C        11.80008515992049    7.40701835793209    1.48811299108149
H        12.00012932434966    7.93130667015919    0.55505023223968
C        11.79815833039751    6.02260863985169    1.48108709190874
H        11.98842361136816    5.48352298021929    0.56484344695512
C        11.55031076686923    5.34700536547386    2.65875908085982
C         8.74073955127374    8.35110117421125    1.51151915427519
C         8.75486003295014    7.90891379080656    0.19388511040519
H         9.04306229322525    8.58507731368612   -0.60026541502338
C         8.40052409377795    6.60414335597104   -0.10072421678593
H         8.41361247014361    6.26458372776797   -1.12626880279194
C         8.04145131143247    5.73237786731280    0.91304551850231
H         7.78152731552622    4.71032842052341    0.68116100325220
C         8.01943124437944    6.17073352900887    2.22783578103146
H         7.73875906647954    5.49216682838374    3.02009549010214
C         8.36907600059966    7.47233030811575    2.52693685318705
H         8.36262739913391    7.81869418492970    3.55339623460309
C         8.16521676024789   10.54883515683283    3.19097014995815
C         6.79781930093071   10.44399233002165    2.95074356116194
H         6.44522322884941   10.00320554379640    2.02741559139302
C         5.90235346112939   10.88665208901286    3.90567636676928
H         4.84046472231894   10.81475807590417    3.72031919443849
C         6.36272151756808   11.41833853089999    5.10119970041328
H         5.65627121080402   11.76580155030522    5.84045425120750
C         7.72202328011068   11.49465735466928    5.35475671316755
H         8.07786671749714   11.89753100848208    6.29132057373488
C         8.62313174199333   11.05591635690538    4.40209308936538
H         9.69505204041381   11.10871537099749    4.58876099684852
C         9.26393651501989   10.96204507401323    0.48327669123923
C         8.18814238399083   11.75930143203474    0.12316074156403
H         7.32434866411832   11.83317512006499    0.76752871055665
C         8.24431119876524   12.48568614312016   -1.05483953831998
H         7.41209926382947   13.11522184247222   -1.33295238162492
C         9.36261524746952   12.41955460564870   -1.86780060803585
H         9.39980184184464   12.99477517348373   -2.78077525662211
C        10.44572086429592   11.63323187392139   -1.50412820016315
H        11.32536798205845   11.59801768184382   -2.13034876196897
C        10.39840470820917   10.91268770695071   -0.32828972459634
H        11.25537306149319   10.30717816797292   -0.00718993029539
P        13.70304321416103    9.97544409194483    3.31273451368492
C        11.30162135612211    7.40853024840900    3.82697050902434
H        11.10146192726456    7.93396723599181    4.75937022266335
C        11.30282687636290    6.02413502795827    3.83562799341857
H        11.11232631937885    5.48623307496760    4.75251039582424
C        14.36192759887827    8.35099241988915    3.80028724105028
C        14.34857565236192    7.90845136052728    5.11781137566262
H        14.06067673748017    8.58435994013648    5.91229042253423
C        14.70330225521910    6.60366063023401    5.41187474594649
H        14.69082341996256    6.26380613690675    6.43732962648775
C        15.06200617726827    5.73223201115948    4.39768218955819
H        15.32224007729373    4.71016746415277    4.62915430616619
C        15.08324996543322    6.17094193231429    3.08299793382686
H        15.36363615618480    5.49264928262484    2.29040110740127
C        14.73320685448970    7.47255547132957    2.78444141409737
H        14.73907249920395    7.81921533898336    1.75807682467369
C        14.93678342465033   10.54910275735171    2.12126561639676
C        16.30425300526677   10.44440602034863    2.36115850554870
H        16.65713500622258   10.00357786249158    3.28435533568714
C        17.19945222825255   10.88722175264388    1.40604436367861
H        18.26138874162510   10.81541509348666    1.59115991436034
C        16.73876384950619   11.41891783344668    0.21064989049765
H        17.44500942899465   11.76650096313999   -0.52874497711962
C        15.37939548760215   11.49506341953465   -0.04259943804190
H        15.02327556746206   11.89794198634900   -0.97905565022138
C        14.47855470605189   11.05616416388076    0.91025017255796
H        13.40659348861008   11.10886825009125    0.72380526719157
C        13.83871873300455   10.96169015710927    4.82932099296460
C        14.91470057686978   11.75867309110910    5.18952924356292
H        15.77847464253277   11.83247648775280    4.54512878063282
C        14.85875490181518   12.48486438002999    6.36765922201673
H        15.69109685030672   13.11420887330323    6.64582105943023
C        13.74049669513958   12.41879362899397    7.18069337050141
H        13.70346357496689   12.99387315610864    8.09376319521840
C        12.65721808503521   11.63275322158021    6.81693594419457
H        11.77759519069055   11.59759832863860    7.44319034490931
C        12.70429924463990   10.91244190363914    5.64094159315843
H        11.84714864966375   10.30724532753609    5.31977637716429

