42
CSD_code = WEJFUN | q = 0 | S = 0 | Stoichiometry = C18H20INORu | MND = 8
O        -0.97018418151197   12.85692203822114    6.05551562200928
N         0.41454660023828   15.52451498427922    3.69735263688247
Ru        1.23337458442370   13.69470545744181    4.23434696120576
I         2.68268704799432   14.91324686817324    6.13368933503940
C        -0.73300611445173   15.97239737528015    4.23062288152764
H        -1.14180612305638   15.39754642074421    5.05309713904030
C        -1.38658208518770   17.10891164884480    3.80373819166614
H        -2.30500834432675   17.40723313228711    4.28180957963793
C        -0.83907696639330   17.84356213918855    2.76326748591360
H        -1.32321473964047   18.73022372229888    2.38607737858325
C         0.36704560812163   17.41538941999261    2.24299362054816
H         0.85080217006526   17.97735449337452    1.45935408733537
C         0.98726611039161   16.26924449542466    2.73129579604548
C         2.35211938031102   15.92196120684301    2.20620837794201
H         3.02805695791236   15.77789725173287    3.05761779034359
H         2.72349287734499   16.77543605305350    1.63540328893106
C         2.41061814370009   14.65809840778821    1.30556936200123
C         1.37602918281539   14.77141007057675    0.17574815725344
H         1.53852315161701   15.72041253913408   -0.34248857207758
H         0.36333506416093   14.79773382969172    0.58846424477189
C         1.49825234016209   13.63234101016483   -0.83580780465048
H         0.76718411394940   13.78137541552747   -1.63355255955349
H         1.27562127943190   12.67766260188265   -0.35537878416117
C         2.90506110074984   13.56866350962897   -1.42008349565492
H         2.98054369213725   12.72770553314352   -2.11166990392059
H         3.11203367358579   14.48344071494619   -1.98070865142763
C         3.92668735322909   13.42000582772984   -0.29813661630793
H         4.93633954954026   13.38595471040654   -0.71156066524656
H         3.75137420404650   12.48276963647438    0.23600649950509
C         3.81092028313905   14.59327100276939    0.66902182099918
H         3.98845801716853   15.52176620631851    0.12036977674022
H         4.57686616291919   14.52101694197145    1.44253045278968
C         2.17439051112655   13.46065991307161    2.19703559345216
C         0.98174901992191   12.66763180798590    2.31176905458739
H         0.13198276971104   12.68358165139037    1.64292250125876
C         1.22307609766800   11.65442664911957    3.28101132297418
H         0.56548933458330   10.82281235151599    3.50003119389572
C         2.50452607449726   11.86796487158669    3.83350416602746
H         3.02751107508884   11.20283337735777    4.50872840088136
C         3.09269715084183   12.97097853893582    3.13583225826219
H         4.11686621123715   13.29275096413952    3.26793919393431
C        -0.13614833926378   13.27468520956251    5.38251288101529

