50
CSD_code = WEJHIE | q = 0 | S = 0 | Stoichiometry = C22H24CuN3 | MND = 4
Cu        2.89525846034235    0.36558203242595    6.08497334200076
N         1.84093298079313   -1.17220469793093    6.32652985232026
N         2.31896276858681    1.12342456831322    4.46118315827123
N         6.34706281056275    1.63285089062174    5.34107025088491
C        -0.14022051597233   -2.46956394466007    5.69606119071448
H        -0.55814803197769   -2.40169876233660    6.69906406250525
H         0.33489592744348   -3.44481553085158    5.58770145913906
H        -0.95128063494795   -2.40747244978229    4.97729931316937
C         0.86170565357662   -1.36515019699171    5.46435529006690
C         0.68976344571762   -0.62688405809719    4.29509255376494
H        -0.11165321398485   -0.97531996597425    3.66060055984437
C         1.38079663700329    0.47750286753929    3.79645096317031
C         0.96522558049435    0.95019487488296    2.42671933068978
H         1.83450132615961    1.04834978246164    1.77884548236464
H         0.47768035725472    1.92325104335944    2.49176056077884
H         0.26930682121637    0.25130026780181    1.97325140332624
C         0.99259163861480   -1.60168553807219    8.62166364599362
C         0.71633167328297   -2.48981664777022    9.65461430269635
H         1.15021571036047   -3.47997840294024    9.63578807102548
C        -0.10693494127171   -2.11732700259423   10.70127484848919
H        -0.31478596262254   -2.81768968476297   11.49703167642308
C        -0.66709875471762   -0.85085085355481   10.72800756545551
H        -1.31229314833282   -0.56032997677005   11.54382388944964
C        -0.39721883193017    0.03872385580237    9.70299810593647
H        -0.83144713331553    1.02788907367215    9.71620262740220
C         0.42867485054094   -0.33368419532362    8.65649505334931
H         0.63470572644073    0.36091205446759    7.85324237044914
C         1.91706393152065   -2.02428885273553    7.50033112711675
H         2.94483589021324   -1.99342094515382    7.87622541557321
H         1.70734985846965   -3.06763028280181    7.23808495528326
C         3.99043475482166    1.87377971365912    2.78098516358108
C         4.37277365030925    2.79967826851617    1.81855837712119
H         3.91584938573961    3.77987391820226    1.80983660178426
C         5.33370829083834    2.47813477617955    0.87788068010526
H         5.62430868932997    3.20769672492667    0.13586715576526
C         5.92149415291990    1.22459595680545    0.88738360825824
H         6.67299220651858    0.97336070829203    0.15351097651316
C         5.54388861641964    0.29734078007423    1.84244537010050
H         6.00127413193098   -0.68085972238233    1.85816443174344
C         4.58446863622186    0.61985935085235    2.78529986595537
H         4.29128116956454   -0.10546614973838    3.53192442270660
C         2.96368928598525    2.26015495917120    3.82306058096386
H         3.47626560069345    2.84429843120589    4.59431624628407
H         2.21563953282845    2.92014663514542    3.36714054731237
C         4.00969258629374    0.41388112357537    7.62258718143691
H         3.45644365524035    0.54539946378934    8.54264125399523
H         4.73791813183364   -0.38738710151044    7.63183736382606
C         4.25032437452780    1.52265359303074    6.80335487198666
H         3.82938098976966    2.48858120378614    7.06510615968068
C         5.39769127870530    1.57660804414858    5.98375671324198

