62
CSD_code = WEJJAY | q = 0 | S = 0 | Stoichiometry = C28H30CuN3 | MND = 3
Cu        0.45677122454205    4.58026728482115    5.15863510568195
N         2.20621411099529    4.91402617639925    4.49575220506051
N         0.00449530536986    6.36339587485536    5.63172973030023
N        -0.68648321908687    2.00071731693429    5.94660210305022
C         4.30652493218110    6.18295968632418    4.39240256948210
H         4.88122296183168    5.35724004758806    4.81075634690397
H         4.70383638212652    7.11568068802266    4.78223974599907
H         4.44410659394371    6.18266411135146    3.31034504202802
C         2.84417845778706    6.04269715104969    4.73972477818908
C         2.23214116236133    7.15863452531868    5.31501114305566
H         2.87015726865264    8.01938075288658    5.45117689780093
C         0.90548819714463    7.31934171007148    5.72708907812285
C         0.54850885666022    8.67140308326013    6.30115309821916
H         0.10657478017263    8.56616893829116    7.29180638973118
H        -0.16292604865908    9.18865689302784    5.65664725070739
H         1.43614600138334    9.29160621217362    6.38647641041166
C         3.63565136856429    2.91411915745689    4.87871713982087
C         4.43880772632091    1.88462896014102    4.40040346181578
H         4.55077081858728    1.75115145959952    3.33314976638510
C         5.09165199958523    1.03525408000752    5.27370449852714
H         5.71385963113538    0.24079175064751    4.88743801285562
C         4.95084072831301    1.20305839210071    6.64166488197099
H         5.46077497137315    0.54030539456484    7.32537126195546
C         4.15448072831121    2.22542100235912    7.12600711432294
H         4.03880055203055    2.36334745892650    8.19153125669830
C         3.50068841090032    3.07597783280766    6.25014446516008
H         2.87642238219902    3.86983495134856    6.63349944146266
C         2.91404796808157    3.80599277420575    3.89134076669577
H         3.63425085131518    4.14898910270452    3.13700332731216
H         2.17462253635525    3.18886308596973    3.36637490206841
C        -1.68473212354058    5.85710040226300    7.35862521569118
C        -0.69045323397077    5.48056606995205    8.25043371370111
H         0.34289888187591    5.69198386060413    8.01705163999137
C        -1.01190365418974    4.82973167752851    9.42903315502397
H        -0.22659273058300    4.53668730793495   10.11087702564727
C        -2.33300905036045    4.55661304971843    9.73622623210264
H        -2.58419439067028    4.04853757789939   10.65590479760626
C        -3.33293800206374    4.93751778779438    8.85587172933866
H        -4.36727843138299    4.72813975131461    9.08857397350097
C        -3.00934987343086    5.57895165777010    7.67446839618605
H        -3.79200153592548    5.86723265466084    6.98643432112774
C        -1.36008532044099    6.56813984877484    6.06414511458299
H        -2.02093264533851    6.17078496913835    5.28314644848331
H        -1.60863761585427    7.62955018163926    6.18423762088367
C        -0.99927733333988    0.77493130708830    6.42225021619788
C        -0.05768238481760   -0.25898922946869    6.30488042381118
C        -0.39695333359493   -1.50579419450850    6.80355146681351
H         0.31234919548178   -2.31639374455772    6.72415399054538
C        -1.62872003433211   -1.72200601922308    7.39865803598606
H        -1.87546014304924   -2.70109859827571    7.78096661642709
C        -2.54544834165526   -0.68959209024366    7.50636671155732
H        -3.50332089178631   -0.86654897599733    7.97294673173819
C        -2.25000942470862    0.57422853724357    7.02290501904053
C        -3.21524918027386    1.71211266969349    7.12336581964740
H        -4.12489069299944    1.40256487379022    7.63070784467702
H        -3.47375233723526    2.08029359803885    6.13063392040214
H        -2.77013028393422    2.54343115324360    7.67022365045731
C         1.26306636104723    0.00617037918795    5.65527457092203
H         1.88290159737522   -0.88606450479837    5.65890325571319
H         1.79401558202365    0.80465593179144    6.17326736488692
H         1.12242674992164    0.33212589764198    4.62478018813908
C        -0.32978301871750    3.02926035714578    5.50323659736022

