27
CSD_code = WEJKUS | q = 0 | S = 0 | Stoichiometry = C4H12N10Pd | MND = 4
Pd        3.57261504465180    0.00008556127922    3.47704322412757
N         4.06579550510820    1.86047475538233    2.87879649960519
H         4.98443102390687    2.05456231140498    2.47954209984222
N         3.72685782684951    4.09600911060307    2.34568908541524
H         4.71977581440627    4.26336114536204    2.33467206386895
H         3.15018588676454    4.89330436177306    2.55597114217286
N         2.01776842594839    2.98168244463067    3.31043420860198
N         1.74049129354940    0.70658522303361    3.93070761103597
H         1.03671498326309    0.10048218540393    4.35291059381526
N         0.08200393121405    2.30142775820909    4.25092664762680
H        -0.62496928003199    1.58546556855853    4.29058105031040
H        -0.22958927346865    3.20826010403468    3.94580193963969
C         3.27484800349199    2.90662516384593    2.88229083403434
C         1.33872250444381    1.94817032785770    3.80013525462192
N         3.07920885263915   -1.86051453260856    4.07435651471246
H         2.16058966540935   -2.05460119252612    4.47363412606745
N         3.41822047750061   -4.09595400887721    4.60769817777487
H         2.42530897347834   -4.26331879737447    4.61885846474266
H         3.99489473057626   -4.89326509203617    4.39749772934367
N         5.12723361927653   -2.98168202733239    3.64272177050685
N         5.40447584122323   -0.70657121814725    3.02242257924764
H         6.10820668717019   -0.10048387347415    2.60010776049991
N         7.06290920865048   -2.30146579793649    2.70204998467826
H         7.76989787467534   -1.58551729851818    2.66236420929086
H         7.37450215118096   -3.20830653371013    3.00715180574870
C         3.87016517812021   -2.90663827285570    4.07089440074560
C         5.80623505000205   -1.94817737598199    3.15294022192270

