85
CSD_code = WEJKIG | q = 0 | S = 0 | Stoichiometry = C38H30N8NiO8 | MND = 6
Ni       11.18869097858820   22.32831462191266   18.94561480953426
O        12.55180654064868   21.00796502064634   19.01935884429922
O        15.77053384675012   21.20770761630711   21.68665904579721
O        12.79355951522294   26.00692154869097   19.08365246074826
O        11.08734570407825   27.14724237401137   18.46607269395708
N        13.61992336448131   22.18937358814930   20.66874223604712
H        15.01033289251206   21.83159455469985   21.54912360967615
N        12.50297631959041   22.95710517234472   20.78285930208949
N        10.10749418034052   21.00909681524234   17.26348788365747
N        11.66744908148079   26.43579399297661   19.26486161287982
C        11.39353512262625   24.97183644710859   21.22445212808190
C        10.97223691915400   26.06649837693479   20.45581527415236
C        15.68974688070275   20.26676189449792   20.73431368442987
C        12.62006831460505   24.22134093885767   20.96418008895128
H        13.57705185561600   24.74075334708097   20.93712402442842
C        10.86815188226554   20.16800905895969   16.56749532702654
H        11.93411085869966   20.34689135484451   16.61538890039307
C        13.51631453316385   21.17223970454917   19.83733649263775
C        10.54483486199401   24.53947200274755   22.24537143971863
H        10.83064693422274   23.66462853500981   22.80897542707930
C         8.98464196483866   18.92174323339637   15.81079149132259
H         8.55055648253976   18.09965487373701   15.26123779030743
C        14.61887843932619   19.19648627970643   18.85204829164375
H        13.79673527826342   19.17079975540218   18.15273890705793
C         9.01068530051068   26.33795674781302   21.81523158217636
H         8.10146110176534   26.86774588594652   22.05043642092553
C         9.37502906777175   25.21048088295786   22.54045719178827
H         8.73772354034977   24.85456653033260   23.33549736293017
C        10.35644688771486   19.11406739111575   15.83038297203995
H        11.01980367912390   18.45032801479191   15.29905512046944
C         8.79189727808171   20.82665485495660   17.22751843804003
H         8.19064060719083   21.52581685611065   17.79457383414728
C        16.69473490682847   19.30070908030934   20.67218773477784
H        17.49755863678227   19.35853799921744   21.39063924603407
C         8.18567467602186   19.80280369293588   16.51900353443454
H         7.11312310192467   19.69315179669768   16.53832017126329
C        16.65836414588053   18.30431216654281   19.71940274512393
H        17.44592606851915   17.56588515069932   19.68910976827310
C        15.61887424669566   18.24949081835946   18.80110819232251
H        15.59225631689868   17.47189925230515   18.05334232463634
C         9.79664900440749   26.74914139456600   20.76099642454239
H         9.51318833934730   27.58849334375068   20.14477364102741
C        14.63205179811632   20.20857674649839   19.81050184635908
O         9.86462649340267   23.66698132617134   18.90450058651133
O         6.63279606450260   23.05081937901245   21.46399751456963
O         9.42841887960285   18.67726952674463   19.20068779841843
O        10.91147170065598   17.37626281965035   18.34911780158079
N         8.84439304252547   22.27656465223929   20.37905029992030
H         7.42518820360023   22.48316207263384   21.27979053331579
N         9.98086371335433   21.53336300706111   20.27174555577113
N        12.20682075643620   23.36724202266383   17.60753552984837
N        10.52240226481915   18.14331147733488   19.20643942288559
C        11.15998970188081   19.56466940738789   21.07930522267977
C        11.39968205953054   18.43350355848627   20.29634872986041
C         6.66838953966524   24.08152894585406   20.60922712967159
C         9.97879690789631   20.41594009659890   20.89480108773645
H         9.07251413802132   20.10806231781888   21.41848953796693
C        11.51162720212694   23.88604846986476   16.59438806379698
H        10.46444802518419   23.62258022419726   16.53823494215703
C         8.87517513396626   23.36991285974962   19.64094696235427
C        12.05871815595451   19.85126825949791   22.10272655844604
H        11.90390138080994   20.73499026357715   22.70210194729310
C        13.41460278162254   25.06175378661228   15.76270770578631
H        13.87779902017822   25.73707730376334   15.05948188778968
C         7.68831413400510   25.37815515531172   18.83960057434973
H         8.50810921636729   25.51097944159284   18.14936843623808
C        13.34605306744545   17.88565606752404   21.57676004774764
H        14.18839658260908   17.24221873135193   21.77368860525412
C        13.13640115677434   19.01887178488320   22.34996144961724
H        13.82218805167296   19.25889015428421   23.14788236292685
C        12.07198706712444   24.73698400169174   15.65914580620620
H        11.45802206073914   25.14578835559737   14.87241619001542
C        13.49874142744425   23.66965964454058   17.69722377523883
H        14.06124213401495   23.24034904058480   18.51371085951718
C         5.62338309812094   25.00639543494721   20.64072138646154
H         4.82673201135865   24.84600360521797   21.35024370673511
C        14.14178858212416   24.50341475298687   16.79788968367512
H        15.18889665079227   24.72174578764820   16.92984170644752
C         5.61257290694959   26.08822912528557   19.78597217548751
H         4.79252936356539   26.79006905348896   19.82514219200841
C         6.64564978304124   26.27796231528053   18.87768383790604
H         6.63497537671351   27.12416057755854   18.20840714050629
C        12.48760110832033   17.60118097551690   20.53487795965125
H        12.63393109768231   16.74193781186670   19.89867278627136
C         7.71864850171424   24.27718669212208   19.69542418238983

