29
CSD_code = WEJLED | q = 0 | S = 0 | Stoichiometry = C10H10N8Ni | MND = 4
Ni        1.87135851862047    3.54988066141485    6.94246239426295
N         1.80212219940101    1.69341145020267    7.27916771759094
N         2.04485132072602    3.20656123593707    5.13010319746372
N         2.04111201995307    3.87547560068607    4.16644925995506
N         2.06233685109900    4.41933121357452    3.16949665070563
C         0.66397622760429    1.07922204584143    7.60035507866622
H        -0.23449101244458    1.68479606305126    7.60816324261550
C         0.60879518513265   -0.26532131504195    7.92090699592616
H        -0.33563085482484   -0.71699935316492    8.17877069137655
C         1.77939531614336   -1.00602975459353    7.91199440364813
H         1.77174475726939   -2.05483236691661    8.16636805031761
C         2.96013651000437   -0.36712953527519    7.56984544347151
H         3.89660490831320   -0.90120561861491    7.54673672735082
C         2.92779676492782    0.98024508681981    7.25804098954378
H         3.83402393522341    1.50762943969958    6.98391752063174
N         1.94080318942009    5.40626356596672    6.60599856909361
N         1.69659026592124    3.89315643915613    8.75478941840632
N         1.70081212236195    3.22428614224177    9.71846748294999
N         1.68011067448419    2.68053645448200   10.71552182417350
C         3.07813754418303    6.02078385271176    6.28260763135622
H         3.97666178124869    5.41534123311547    6.27220603313344
C         3.13246142421614    7.36557737238195    5.96293903518706
H         4.07625976455233    7.81753050477207    5.70327007837948
C         1.96182760341582    8.10617998397638    5.97506423832350
H         1.96881090366229    9.15518420093183    5.72150122670087
C         0.78190915166564    7.46690435919013    6.31936740898762
H        -0.15456445300551    8.00085871707164    6.34496874993241
C         0.81508855341728    6.11932898574437    6.63014089542516
H        -0.09044117269166    5.59163333463783    6.90597904442565

