57
CSD_code = WEJMOQ | q = 0 | S = 0 | Stoichiometry = C27H20F4IrN3O2 | MND = 6
Ir        6.42733096713310    2.55905405126126    2.22100445412235
N         7.71867275572275    1.26159405476994    1.44484438274968
N         8.00948123551786    4.12657441515729    1.55920879550522
H         8.77192710462703    3.53940926889663    1.22810612297549
N         4.95372716537541    3.77035199836291    2.94319248465228
C         5.96674933364676    4.51536123310167    0.08731317787559
C         8.62819169088229    0.69712216586096    2.27706936034754
C         5.03576955124286    1.17314315992574    2.66124988869184
C         7.73522349402710    6.34577407706640    0.62969196821736
H         6.84319416308689    6.80768430063270    1.05626059019712
H         7.96548568836258    6.87244583377461   -0.29347747133462
C         9.12844956283886    1.27704102732758    5.99861628486648
H         9.78611088574677    0.99641750500615    6.80415194249822
C         7.69270047143292    0.91571209791024    0.16015895120875
H         6.93352201943138    1.39638939182237   -0.44210692633080
C         7.19729298976418    2.49202486471220    5.18279699864715
H         6.36964966555825    3.14563817689473    5.41098726145815
C         9.51837328792972   -0.58407264116843    0.45195909417855
H        10.22133612586353   -1.30620652199094    0.06642538530035
C         7.40448552189121    2.02526125740573    3.88952048042773
C         9.33423539011500    0.80725587082543    4.71806152640899
C         8.04703406204302    2.11587449415951    6.20563584822640
F         7.82755385444433    2.58439719877113    7.44907593572452
C         7.47986888538793    4.85871582972485    0.37603662858260
H         8.01582568380004    4.52989690929782   -0.52395413374131
C         8.57369911906346   -0.00083906030161   -0.38157923180551
H         8.51733307096658   -0.25306206624113   -1.42785091417954
O         5.27393220299811    5.38293422494642   -0.40957820706613
C         8.50008714359149    1.15352871808873    3.65571605620649
C         8.60728481622240    5.11528387411412    2.47584551405956
H         9.49863018094139    4.69933820885413    2.94889866226628
H         7.90166225085114    5.36095313518557    3.27277875736783
C         3.79541541058583    1.71755794990408    3.06277494459189
C         5.16000605878255   -0.20724160375644    2.56040793669835
H         6.08525823862731   -0.67508012344543    2.26199332158396
C         3.75050666234074    3.17402430616646    3.11566942133523
F        10.40250138270916    0.00133528393396    4.52595427770927
C         9.54472090927660   -0.23390219587723    1.78967864927248
H        10.26548112407353   -0.68546470747649    2.44877865942626
C         3.91001479165381    5.91151718597969    3.13032775454451
H         4.02259433198979    6.98332568575409    3.12070031551056
C         5.01285538539970    5.09752540089742    2.95908954729078
H         5.98555724152381    5.54240426855299    2.82259772749103
C         2.67002040378361    5.31398907976870    3.28734831867732
H         1.77809523761778    5.91035914295347    3.40088009610445
C         2.59461903164519    3.93462621065067    3.28755373855050
H         1.63924680701599    3.45283233449082    3.39805112093494
C         2.74319187915773    0.85190988748716    3.36306995577944
O         5.63077185097602    3.32648906282727    0.35663792015548
C         2.86463113493099   -0.51923443141004    3.26517343895825
H         2.03704876290673   -1.16640554509586    3.50314761784506
F         4.22923626961761   -2.35930741918839    2.74926376409167
F         1.55019805877411    1.32384973846779    3.78429084332327
C         4.08436250241997   -1.02392593447955    2.85428050126933
C         8.89631358065632    6.35140298606256    1.62194950019275
H         9.84515395303731    6.23357866402918    1.09426909425657
H         8.94317864999522    7.26223771865008    2.21525186609895

