68
CSD_code = WEJMUU | q = 0 | S = 0 | Stoichiometry = C24H29BClN10OPRu | MND = 6
Ru        1.60883785282893    4.12715361981622    4.15617415310907
Cl       -0.65453791109820    4.29337418843494    4.83147854770312
N         4.00546162049353    5.29057437804356    2.94538874217189
N         3.57827389369209    4.27138008236573    3.68997003690692
C         4.63233415270589    3.55106114094402    4.03747488333567
H         4.53330994499902    2.67363001918289    4.64672460511552
C         5.78649958831568    4.11705071912467    3.49631820966228
H         6.79262492399392    3.76547888787050    3.59339152931175
C         5.33899839359878    5.22387193408893    2.80897232433515
H         5.87600758049757    5.95597177234330    2.24125826578254
N         2.40146316990655    6.93135360553413    3.79157226158735
N         1.76004264006001    6.09256825433036    4.60314278135680
C         1.31992628879812    6.77898072148886    5.64417457582318
H         0.75253764695748    6.30927327483934    6.42668407903808
C         1.69006913150267    8.11765703181904    5.50491433302010
H         1.48044238009373    8.92407659788211    6.17696518343084
C         2.37654375186949    8.16798103311419    4.31099028821538
H         2.83802732040041    8.99172695528232    3.80518343572722
N         1.89340260013044    5.71450715961180    1.72083696042593
N         1.16987411923010    4.73601115615377    2.27191052295964
C         0.22763512094147    4.38449602428505    1.40896770343722
H        -0.48482564312670    3.61360029534768    1.63693239988384
C         0.34322279217997    5.16101654204884    0.25553864139462
H        -0.26986401999427    5.11659232183491   -0.62029073465276
C         1.41370030079471    5.99307163178495    0.49839649104067
H         1.85770348430151    6.75472987926748   -0.10957253980568
B         3.02941782625904    6.38982509268163    2.50004205718223
H         3.56366907310496    7.23239068365748    1.86943661294602
P         1.44896636524870    1.91724700421864    3.73530926966045
N         2.74249902978908    1.22669344019904    2.85742840167319
C         3.28156931792312    1.88081915778884    1.77700482780047
H         2.90364543385828    2.84176525427405    1.47907507742002
C         4.26103207133263    1.10733075232789    1.23477136357124
H         4.86531298714148    1.34584216932376    0.38193710059941
C         4.33208295513460   -0.07521831365560    2.00861698654204
H         5.00246915177382   -0.89759304397662    1.85218364066068
C         3.38993804087703    0.02203597254294    2.98721777226723
H         3.12701149702308   -0.67302755365681    3.76058270419527
N         0.15275219843204    1.17781352161395    2.90561306744173
C         0.19662475972777    0.06773523375927    2.08813201800679
H         1.11794334739135   -0.43646822703021    1.87386359653087
C        -1.06196352788646   -0.20274204644129    1.65142540615904
H        -1.34745575455162   -1.00338346473055    0.99731392539326
C        -1.92463697145487    0.76692222489662    2.21794508793413
H        -2.98522236090412    0.83471752809934    2.07533730494883
C        -1.15830703666229    1.59646721280720    2.97552331239746
H        -1.42868101443756    2.44589426857057    3.57582325831418
N         1.48615038664630    0.87857718411564    5.11138311975001
C         0.36702491216027    0.40831226174533    5.75392029596197
H        -0.60006740090744    0.46544676255660    5.29318958339558
C         0.73391273322309   -0.10652264340979    6.96057339473933
H         0.08643561197045   -0.57494925579430    7.67571786989703
C         2.13083485185338    0.07708477862802    7.08607600660525
H         2.74415206693313   -0.23358267244931    7.91022296505138
C         2.55578763468166    0.70101095334597    5.95203800285481
H         3.54290888452415    1.00826544379106    5.66529205482544
O         2.17682269205231    3.70181066342544    6.20743097586127
C         1.37647925106916    3.33374577493181    7.06824356704219
H         0.31000254088089    3.18344035762771    6.85277112113780
N         1.72353686925858    3.10016620620409    8.33003678248732
C         3.09308637294765    3.24972285822106    8.76225304679189
H         3.15018601163815    3.95236707422236    9.59543099491096
H         3.67767052821683    3.62820921957107    7.92622306474542
H         3.49675091860105    2.28688548582733    9.08020574247915
C         0.78158630197510    2.63184927738224    9.31161769535054
H         0.75668495450843    3.31490734993612   10.16383342051172
H         1.07008001923209    1.63980071478623    9.66611681119241
H        -0.21130465470840    2.57369611119856    8.87224301243587

