29
CSD_code = WEJMAZ | q = 0 | S = 0 | Stoichiometry = C9H12ClN5NiS | MND = 4
Ni        0.14384313308348    0.40476040759729    3.87534541131753
S         0.74609435473381    1.91815227393739    5.31253683615878
Cl        0.09219132989052    1.68852659668311    2.32802586839070
N        -0.39809128474971   -1.18559107704145    2.83528346088207
C        -0.68557790025804   -1.34241648320333    1.55101826303331
C        -1.04561750404608   -2.58822746189528    1.04983791361969
N        -1.11815749684622   -3.66185833173713    1.82600674483190
C        -0.83403712592602   -3.51224022443247    3.10051416817423
C        -0.46397053527017   -2.27296496640129    3.64728892217407
C        -0.13550288308184   -2.03179543542810    5.02516509554866
C        -0.15798686235099   -3.11291936627503    6.05664925686767
N         0.18561294228686   -0.78765860110350    5.29598391019570
N         0.51336519602114   -0.44395362505189    6.53512817933305
C         0.81260266511634    0.83690598814819    6.67674921851915
N         1.17170512307564    1.29928065734096    7.87704988002173
C         1.18893704828345    0.44201723825563    9.03662112629254
C         1.49906953278600    2.67976186834852    8.11704540403215
H        -0.62599603090424   -0.46151018496156    0.92536777473644
H        -1.28131640741057   -2.72964976818926    0.00598548895520
H        -0.89867701251694   -4.39734621335870    3.71653667457462
H        -1.15550769977039   -3.54415474594686    6.13383161199497
H         0.12577377648773   -2.69281204732125    7.01746019858140
H         0.53994584998723   -3.90628626588293    5.79152266801422
H         2.18851710779857    0.43300804890495    9.47738770877224
H         0.91393850688469   -0.56542565629042    8.73962172885991
H         0.48054559389153    0.80908371431174    9.78339673228086
H         2.43333918803684    2.73927688884173    8.67857436633623
H         0.70907850041886    3.16402822221092    8.69760846176063
H         1.61407889434804    3.20360854994001    7.17145692573921

