120
CSD_code = WEJMIJ | q = 0 | S = 0 | Stoichiometry = C43H71BrCl2P2Ru | MND = 5
Ru       13.48220011174685   12.66739216213867   14.79602064798984
Br       15.95690088400876    8.12397064877871    9.19014490310060
Cl       11.31838241106570   13.61600888584936   14.76397137803378
Cl       15.67441383075674   11.98779322474334   15.36815578389286
P        12.64162562634439   10.80422457065582   15.98930445591000
P        14.32942777257360   14.78394921603642   14.16676514272221
C        13.21521896609085   12.04769561830551   13.00300802012456
H        12.35142469756311   12.51098235896631   12.50257808188603
C        13.88354772366428   11.11984890036247   12.15177654722300
C        13.35636795580462   10.87433334105417   10.86724422377395
H        12.45421090737885   11.38458012149604   10.56090946464801
C        13.96014307294650    9.99493072204436    9.99663299069416
H        13.53942953002775    9.81414803944779    9.01906415272700
C        15.12020926568474    9.34311916991546   10.38833062377007
C        15.67659813525747    9.56410680849319   11.63996115910858
H        16.58220366205758    9.05218304261953   11.92673947639582
C        15.06202473717898   10.43471462010505   12.51129187618986
H        15.49098736044906   10.60346125747268   13.48737996923107
C        12.68382166650776   11.22243667182802   17.80650898858575
H        12.15614274978028   10.42217950130227   18.34273765938211
C        11.96870679737185   12.54942972766407   18.06628398133410
H        12.49239767354914   13.34630000282779   17.52084218463877
H        10.94219385857508   12.52385174670507   17.69418670535103
C        11.95251258117890   12.86781514877143   19.55880425157098
H        11.45866285351063   13.82842030280013   19.72459085785169
H        11.36806849946122   12.10260916327689   20.07696661497826
C        13.36452110072608   12.89915132958396   20.13725802282469
H        13.31893049771032   13.07047597119171   21.21495297302839
H        13.92595681113971   13.72446815776326   19.69476733660114
C        14.09317090496823   11.59275232848137   19.84237644108944
H        15.11603856566200   11.64358796459658   20.22120678648710
H        13.58849441547126   10.76794150081512   20.35321054051336
C        14.11502654162909   11.32366884215536   18.34058131135689
H        14.68096267873262   10.41400719076018   18.13924719303630
H        14.63957897020745   12.13975341245642   17.83592648646899
C        13.60048630612835    9.20422638908199   15.91467230700835
H        14.64090590827549    9.56219061458714   15.91946620196650
C        13.37003263093501    8.48170441700500   14.58708976911205
H        12.39107724246833    7.99812517780791   14.59584097725626
H        13.39245634728028    9.19556038572037   13.76212955591370
C        14.43941771931698    7.41034708151495   14.39532896437158
H        15.42365280461136    7.88180606852641   14.37850006308087
H        14.29277443756257    6.90436765259144   13.43864018133077
C        14.37430201064671    6.39995140646736   15.53719435142951
H        13.41803284360038    5.87199128427486   15.49881828804541
H        15.16758420514152    5.65820128611875   15.42651527344799
C        14.50852279316979    7.10379324586731   16.88465557855924
H        15.49830421072029    7.56030964101271   16.95694232563696
H        14.41621221490423    6.37514544085533   17.69339257625702
C        13.44124785646817    8.18780643488758   17.04746699950171
H        13.55060945106400    8.64549541667603   18.02996549408661
H        12.45614374469283    7.72257824193729   17.00489647179424
C        10.82974540414111   10.45102238976013   15.71224079362208
H        10.34889849347626   11.38349187416388   16.03962097248582
C        10.21491814867294    9.29479010025212   16.49606098995977
H        10.58605207214703    8.34429377836257   16.10932982616893
H        10.46458401489049    9.35517807000896   17.55713048551405
C         8.69562996601235    9.32861518996375   16.32999294707171
H         8.24595138744197    8.50693008561928   16.89254694123252
H         8.30740602096924   10.26507309506463   16.73706755161494
C         8.31410633026575    9.22083265349183   14.85658851519687
H         7.22883517650436    9.27482353862833   14.75018836913857
H         8.63901179083262    8.25164917894670   14.46932063281536
C         8.97399557553423   10.33428235814041   14.04833473291157
H         8.59783832114100   11.30396058074699   14.38004652424330
H         8.72586277438270   10.22281873498497   12.99090593621763
C        10.48922652070423   10.29823078381770   14.22910449181637
H        10.94790605378036   11.11482682984546   13.66748230387373
H        10.87619802220085    9.35741151247361   13.83637723152849
C        14.35109203938080   15.88210369676682   15.67299115951274
H        14.90586369191045   16.79395468155963   15.41373701690873
C        12.94563219726103   16.26484089088082   16.14291486133159
H        12.37842403503429   16.74774908836654   15.34760814191997
H        12.39208431949370   15.36488326437645   16.42167350167489
C        13.03430059808760   17.19896787398540   17.34634213552906
H        12.02903037144498   17.48293128217761   17.66399977741112
H        13.56520355901993   18.11185422234550   17.06191139822169
C        13.76875911397494   16.51818166527480   18.49579922035550
H        13.85934040430636   17.20121085872935   19.34321574393651
H        13.18542296412173   15.65628553240487   18.82608707282509
C        15.15503666685983   16.06246123979614   18.04912229241766
H        15.65418661023054   15.52763660913612   18.86106240147248
H        15.76282218684007   16.93914873715376   17.80913421736167
C        15.07383164222579   15.16720161136930   16.81628926025668
H        14.51987554685958   14.24887795942555   17.05995281072316
H        16.08326451877263   14.87100295677239   16.52023031795501
C        16.11913226981285   14.80467186130626   13.63830920161972
H        16.64244863235838   14.42789755082231   14.52838958922356
C        16.73305317905111   16.14933024809615   13.25959510241892
H        16.31975966825157   16.49161555067062   12.30956595379769
H        16.53019962103437   16.90983826449353   14.01620244786883
C        18.24424460954934   15.98038989545829   13.10085962925440
H        18.69543803402465   16.93942655851191   12.83532967009508
H        18.67491792183178   15.66004872421811   14.05235550191087
C        18.55997181384896   14.94232435901134   12.02749130786421
H        19.64082908427926   14.81133082920143   11.94631603377761
H        18.19463731507579   15.29994398592013   11.06134913057662
C        17.89476010520986   13.60856539511765   12.35565275118483
H        18.09057794447270   12.88818272451359   11.55889268100993
H        18.31117408792044   13.20554036199791   13.28076955937397
C        16.38917055627468   13.79243477465577   12.52373005697822
H        15.92505928421902   12.83839586084398   12.77856523583377
H        15.96393560285597   14.13491908817981   11.57991148370257
C        13.31454017141131   15.76169508920291   12.94480163841957
H        12.29056516910672   15.55409856077229   13.29042314458235
C        13.43827689826282   15.21168957442030   11.52372990202900
H        13.41091009501766   14.12020419480745   11.53470016208938
H        14.39092646374497   15.52176877806901   11.08888600549742
C        12.30599411380146   15.76927105088720   10.66540237711037
H        12.37202951777475   15.36697456448689    9.65203184843505
H        11.34726239976501   15.46285355627561   11.08866151814959
C        12.38593166333253   17.29301070815371   10.62516326695399
H        13.30893234826743   17.59218008389751   10.12168531572267
H        11.54915339304566   17.69612292077676   10.05143294989563
C        12.37164084497783   17.87206361598193   12.03716142838180
H        11.41248005992947   17.64931162576952   12.51001493435914
H        12.47877270180120   18.95836370303763   11.99215356733893
C        13.49994111981772   17.27934508977973   12.88324408030917
H        13.48211159781439   17.73721164342580   13.87145742604099
H        14.45521862938018   17.52706442607130   12.41971191166321

