65
CSD_code = WEJQAG | q = 1 | S = 0 | Stoichiometry = C33H25IrN5S(1+) | MND = 6
Ir        5.83252188996251    0.73317896349573    5.09532963857544
S         9.14654564654960    4.05376758064021    4.28862105036488
N         7.32237117106592    2.29240945252620    4.49553507200705
N         6.47449653853280    0.17065025199474    3.06284852970959
N         7.60981348809002    0.65475025929028    1.20684322362013
N         4.21311636431366    1.57169996548721    4.22666431116938
N         7.37151237503337   -0.15036885825225    6.06510977613668
C         7.86969690166582    3.27203440045854    5.13243912096807
H         7.55766219887221    3.58478273901178    6.11020113628610
C         8.90476076872607    2.96536370968711    2.98492845319589
H         9.52938534657508    3.02970089609940    2.11928584202088
C         7.88772508708623    2.09012717639014    3.26328851889667
C         7.34297003538364    0.99417247783072    2.49863598852810
C         6.86148821491786   -0.46838680512235    0.93616355824706
C         6.14859892037991   -0.76016671896589    2.12078395999457
C         5.29133288935968   -1.85615288531740    2.19054468762701
H         4.75734657392806   -2.07487213699976    3.10071132713103
C         5.16881062768067   -2.63058305494993    1.05963987696374
H         4.51512637176507   -3.48837872616325    1.07218759062461
C         5.87518787508603   -2.33742592753559   -0.11271323571872
H         5.74838539081955   -2.97615898539771   -0.97264909889865
C         6.73060077050264   -1.25975472709666   -0.19769949388320
H         7.27278347766428   -1.05220778346135   -1.10679049880900
C         8.47082693704154    1.33026887690455    0.27657148449851
H         8.24276120132364    2.39691603274590    0.25168320193206
H         8.30506389625532    0.91724183478371   -0.71611064971400
H         9.52099813476698    1.18724796990882    0.54164724478126
C         4.18811795580330    2.78112336166267    3.66807019826632
H         5.09458749877001    3.36759249591539    3.73973663609945
C         3.07706881544224    3.30021369399561    3.03475338272541
H         3.10979367834744    4.28734877808810    2.60346736055725
C         1.92546109296062    2.52496106703253    2.97482678137976
H         1.03732731721075    2.89684761933596    2.48843227753157
C         1.93892272237693    1.27389204700247    3.55650620390762
H         1.05746752822937    0.65529588211253    3.53092287626699
C         3.09412354299942    0.80866987883586    4.18659807210020
C         3.22409242950341   -0.47651216071161    4.85423780879512
C         4.48059358404167   -0.71955931062158    5.45031978742704
C         4.66233520806876   -1.92235523169704    6.12072027741065
H         5.60459868303799   -2.14132941035070    6.60278707219463
C         3.64520630986906   -2.86180578583459    6.19279845146278
H         3.80958498470044   -3.78917571657387    6.72079689497687
C         2.41937493751879   -2.61757114262002    5.59269161036293
H         1.63264941396940   -3.35389514852359    5.64957230424449
C         2.20561154641238   -1.42803725054879    4.92711686501928
H         1.24823463229407   -1.24387125971032    4.46470444422343
C         8.22567947586538   -1.01324731611517    5.51640198175220
H         8.03684306180272   -1.29298295437697    4.48872245660692
C         9.29716882349260   -1.55247419488491    6.19984945792676
H         9.95731017243140   -2.24949638094858    5.71027789461711
C         9.49411382737430   -1.18097356326003    7.52417206654727
H        10.32056028044432   -1.58126204693112    8.09025851873679
C         8.60481951704695   -0.29979821792532    8.10495620473288
H         8.72648951940473   -0.00733285221273    9.13453237647412
C         7.53753124440587    0.20635852157548    7.36147545911774
C         6.51328013915519    1.10633801414168    7.87012283145508
C         5.48771380687736    1.42911772549476    6.95513556206264
C         4.46022899880618    2.25244799503377    7.39670866005266
H         3.64619045357016    2.50881321441690    6.73317015442595
C         4.44622985100447    2.75223187443655    8.68984455714993
H         3.63379646147345    3.38728887028303    9.01027396200491
C         5.46757708569490    2.44027624686641    9.57384979491820
H         5.45405101309452    2.83479293159078   10.57812531656477
C         6.49789675705350    1.61672698876839    9.16896361784123
H         7.28727853609749    1.37498675926321    9.86409920580743

