73
CSD_code = WEJYAM | q = 1 | S = 0 | Stoichiometry = C31H36N3O2Pd(1+) | MND = 5
Pd       -0.31164661498760   -1.65954280162309    6.00832029273693
C        -1.81054263486549   -1.03290380334559    4.68473991318235
H        -2.08697779441905    0.00752583827022    4.52913019695116
H        -1.54383496433414   -1.58592050706334    3.77789102324303
C        -2.39682011761759   -1.72876310776424    5.75614149710566
H        -3.01229433207112   -1.20466956422204    6.48658922847448
C        -1.91993077458930   -3.02734587052937    6.01022314123875
H        -1.70237557684788   -3.67509937050760    5.15841253541373
H        -2.25287039298252   -3.54587526352578    6.90541751575349
C         1.21194456403643    0.87438261200912    5.04180679636965
H         0.45459391886472    0.88384502799170    4.26666836114688
C         2.20237615119329    1.83705684839397    5.08284969075091
H         2.22675731965901    2.62224152470897    4.34601330833948
C         3.16668026512769    1.75705268199645    6.08019484064615
H         3.96856599089507    2.47639524584854    6.12914935615194
C         3.10038145186191    0.73531812764017    7.00732618343458
H         3.84725342029841    0.63710277721276    7.77631581374343
C         2.05113688208460   -0.17949961116056    6.91940167962724
C         2.59461257830207   -1.64067980037334    8.90666941343735
C         2.27623405181622   -2.96090721622682    9.13923096568009
H         2.63462929068913   -3.56671642294082    9.94484020790242
C         1.38121363303158   -3.34803356836073    8.11955779497035
C         0.79936351953098   -4.64112933315387    7.82244343794885
C         0.55737427358062   -5.58954109970237    8.81274234642487
H         0.78714825585423   -5.35866171095112    9.84160112044501
C        -0.00024140777925   -6.81303567520755    8.50119275304199
H        -0.18309942403783   -7.52225728367141    9.29192881327740
C        -0.31973913741332   -7.12318657517005    7.17735550236554
C        -0.05577505213810   -6.17548072924438    6.17606521550450
H        -0.28383460978877   -6.44306367776391    5.15660449249009
C         0.49169102883016   -4.95657370397160    6.49116560474303
H         0.73389885189227   -4.24319246503014    5.70044060641444
C        -1.15091527929794   -9.30367719510689    7.69441246197422
H        -1.84923948898272   -8.93226754893321    8.45590872680542
H        -0.22385348958775   -9.62519062183870    8.18659701613715
C        -1.77565575557562  -10.46712562733874    6.93264740484861
H        -1.10624676190912  -10.74911445628051    6.11864710368022
H        -1.86456708820250  -11.31603984167998    7.61213875777122
C         3.38526713001093   -0.76218767063559    9.75087100443372
C         2.93604505294157    0.52199289476992   10.08139164384243
H         2.00038486223584    0.88408613652600    9.68009853446257
C         3.66006028673909    1.31439939949724   10.93721644020886
H         3.31637480099457    2.29989052957741   11.20673963382457
C         4.86449309470121    0.85858700159032   11.49362059195917
C         5.30807113111015   -0.42616091313852   11.17318716314700
H         6.22642290824274   -0.81148537166017   11.58497300459318
C         4.56875782724563   -1.22354275331205   10.32283580251179
H         4.92453963350292   -2.21286298696381   10.07854907212159
C         6.70820274394972    1.33674069145343   12.93627916998454
H         7.46977295865884    1.11746316813149   12.17612530807410
H         6.54327026033648    0.43877072343112   13.54566453879050
C         7.16052586708231    2.49460046344320   13.81880781926050
H         8.16295331134588    2.27462951262846   14.18912709333341
H         7.21182421333692    3.39754758223297   13.20843476824527
C         6.21169231504514    2.72571863051839   14.99314231163397
H         6.16905748535253    1.82188881857931   15.60543899393717
H         5.20930141552552    2.91662929734342   14.60627569285832
C         6.66141995763951    3.89949482552142   15.85279778232503
H         7.65577925678437    3.71963819009396   16.25494329376830
H         5.97696751808177    4.04603667706279   16.68420254524785
H         6.68976419747192    4.81481082144470   15.26634996460025
N         1.15849799022939   -2.30834550226118    7.32588770687304
N         1.90958740162471   -1.26769802986163    7.77341020237289
N         1.13577247562192   -0.11328785972556    5.93553565256709
O        -0.86412798522826   -8.27398320577605    6.75946000163988
O         5.49615801454408    1.71919688580275   12.30260968048090
C        -3.14778117417949  -10.11048234323225    6.36440632660764
H        -3.04547327407420   -9.24212895274453    5.71131013198883
H        -3.81783096471318   -9.83834791234151    7.18342539624648
C        -3.74823320984972  -11.27130453578098    5.58273090727763
H        -3.10698680951245  -11.54221076834354    4.74738865813728
H        -4.72572886666060  -11.00165288858820    5.19141704584223
H        -3.86369657610531  -12.14326678606534    6.22226499700083

