53
CSD_code = WEKCAQ | q = 0 | S = 0 | Stoichiometry = C20H26N2NiO4 | MND = 6
Ni        2.76599773052230   -0.97789860837002    5.42041263055765
O         4.12578189764506   -1.44564062031690    6.60775616737819
O         4.36817832343916   -1.29777985333276    4.46622711617511
O         1.58053952564514   -0.84278435364704    3.92642361327816
O         1.81712028245086   -2.96748132665013    4.40999783805799
N         2.80493269561944    1.33209433967421    5.80960533500137
N         1.36247398377234   -0.75924868067893    6.66412917633008
C         1.41232028632419   -2.07074965495443    3.65133018830536
C         0.62860016428327   -2.42677267082966    2.38381556431243
C        -0.75443230796165   -2.90014410059001    2.84673977986959
C         1.35904975878266   -3.56384539429026    1.66819518620908
C         0.49795447038986   -1.20929966734958    1.47360619592146
C         4.60563261861389   -1.92225104159859    5.53297358712276
C         5.40141831743539   -3.21342919170605    5.55219680486148
C         5.79942464176559   -3.59513411041111    4.12936237955385
C         4.48715011050873   -4.28482831808072    6.15801194243488
C         6.63482256880966   -3.00071564674462    6.43479219666942
C         3.69270328784213    2.24619066730519    5.46288357742499
C         3.90188948317683    3.40778970346407    6.19433747128960
C         3.15496208805287    3.60472717072538    7.34473007068652
C         2.22296461578395    2.64887875988173    7.71274285780289
C         2.06601004426687    1.52061930139300    6.90915497273850
C         1.11073922376927    0.44091058109344    7.21639114923323
C        -0.00088343755644    0.63624868814826    8.03330228619099
C        -0.84234776380812   -0.42612734097581    8.30856909878501
C        -0.54842424951430   -1.66495408877433    7.76018101457233
C         0.56013098813351   -1.78377829426330    6.93905755678503
H        -1.35473982034983   -3.19962027360345    1.98946336344178
H        -0.65261772694376   -3.74984522052474    3.51798870328466
H        -1.27231955446542   -2.10046616897002    3.37333364277604
H         2.32893624245071   -3.22336832756630    1.31236167969627
H         1.51619669958758   -4.39154888385162    2.35529217165471
H         0.77603191006533   -3.91255116036143    0.81777722162012
H         1.48147091561684   -0.85434758167661    1.17694637521377
H        -0.06915057692960   -1.46781753627397    0.58098774507417
H        -0.00746992975814   -0.40051650206434    1.99483231138951
H         6.37334790187431   -4.51956058235079    4.13475338738368
H         4.90844954286826   -3.73393461203467    3.52185805964126
H         6.39911804763055   -2.80842094462623    3.67721138523309
H         4.22553070646244   -4.01721120481335    7.17983268082353
H         3.57160299223965   -4.35917643209011    5.57351371702358
H         4.98925467912991   -5.25045521170196    6.16105377381950
H         6.33360894784863   -2.64169415264611    7.41665073717050
H         7.17554212700146   -3.93782935379605    6.55177841336468
H         7.30222778213100   -2.26637971746837    5.98764319772016
H         4.25218932862444    2.03770696987826    4.56111522432412
H         4.63126742627096    4.13472791335164    5.87384453961405
H         3.29715809692300    4.48776336295859    7.95045847419244
H         1.65001849304737    2.77045572096015    8.61820474382733
H        -0.21274853436862    1.61476602599899    8.43319985619893
H        -1.70964446342242   -0.28998513805750    8.93687206358661
H        -1.16880084226603   -2.52440778243087    7.95698295193761
H         0.81313026053953   -2.72857945435737    6.47231782245283

