83
CSD_code = WEKMAB | q = 0 | S = 0 | Stoichiometry = C47H32O3Ti | MND = 8
Ti        1.30056903093164   10.81671466076373    2.68831519665604
O         1.41090431600222   12.43081690870576    2.03434718264110
O         0.91777080925131   11.11363403039873    4.34311807567247
O         2.95375027429840   10.32210023585654    2.68088440542524
C        -0.73173022120764   10.50898410494622    1.46141105500180
H        -1.45598587190697   11.25417713715178    1.16016871708297
C        -0.80569394048076    9.69424191394123    2.61401612224452
C         0.28304161956267    8.75878991969632    2.58699277993297
C         0.95189808123181    8.91738591856915    1.32394676247272
C         0.35302953178640   10.04461676971449    0.67326945363414
C        -1.78617090989163    9.65346719475435    3.66633564978882
C        -2.91802273287389   10.47839056989960    3.64403853068896
H        -3.02452188274616   11.20585528592112    2.85234143682945
C        -3.89456811639827   10.36517516135497    4.60576441217125
H        -4.76292887717106   11.00671047099091    4.57819242246246
C        -3.76695396445438    9.40560271045896    5.60413448454167
H        -4.54441046805603    9.29302679838276    6.34533609935302
C        -2.64969610306925    8.60224881546353    5.65534390214103
H        -2.58342506538090    7.86581028029253    6.44026318062708
C        -1.61945499653329    8.71717717060113    4.71453157191948
C        -0.36982560690233    7.97807009359378    4.83096590088638
C        -0.03545111883482    7.29278861450372    6.00553245977333
H        -0.74285519519699    7.24126525878399    6.81723555392143
C         1.19881317002364    6.71144867558039    6.18048801826600
H         1.42533635425798    6.19493306640979    7.10102404050239
C         2.16807018128184    6.83149255966891    5.19150932543768
H         3.15655616387114    6.42650493247499    5.35004586790141
C         1.86921754924912    7.48526708799426    4.01978574922948
H         2.63684583346625    7.62436742731302    3.27195800846302
C         0.59519847195719    8.02830022440653    3.79334994859139
C         1.88749729432455    8.10457400384949    0.58898896899184
C         2.17997691492795    6.78569160069950    0.96559954385588
H         1.65393309143030    6.35016396947505    1.80155025153832
C         3.08802661482167    6.02865007837716    0.26415463342887
H         3.30270609679550    5.01650314062707    0.57379188619984
C         3.71630640609663    6.56722163252670   -0.85230544167909
H         4.44425594613652    5.98520066964377   -1.39766043879612
C         3.37399651380761    7.82549734711488   -1.29183672597632
H         3.82844681177736    8.18889020558041   -2.19904979374090
C         2.44222679804415    8.61813252906688   -0.61166172099520
C         1.99974034917112    9.89921996895737   -1.14274593794040
C         2.59456796535205   10.49498628436869   -2.26178031494755
H         3.45985757418134   10.04194437430003   -2.71797726200235
C         2.11508791837867   11.66967412547236   -2.79538855405068
H         2.60122682839668   12.10677223019282   -3.65529773120529
C         1.00571086283002   12.29401703147924   -2.23494404551025
H         0.62482730504000   13.21037182972021   -2.66120430715323
C         0.40661611510066   11.74543032900439   -1.12599259804685
H        -0.44143557438271   12.24033198162198   -0.67424701057063
C         0.89929462369491   10.56563912257932   -0.55212678704984
C         0.54308248763089   13.43360208232538    1.98968579822221
C        -0.53368633876895   13.50126734422440    2.88597785219389
H        -0.62608308324649   12.73482364994311    3.65126506399676
C        -1.44273449328920   14.53873788377146    2.80213892046761
H        -2.26827416960536   14.58074307194666    3.49834128547794
C        -1.30508287674489   15.52138975662980    1.83405420001563
H        -2.02150609002798   16.32625191437082    1.77160860347405
C        -0.23869241046446   15.46679352396049    0.95113228474314
H        -0.12240499205057   16.23224904912210    0.19782312731022
C         0.68039411729121   14.43845065604889    1.02312290078243
H         1.51313141916089   14.38567945953305    0.33590666256041
C         1.25212588156542   10.69671575026619    5.55883409025606
C         2.54911619391712   10.24603829472875    5.82931291645707
H         3.28085377538213   10.26980153322821    5.02724327819846
C         2.87241584414171    9.78787766161665    7.09104199490756
H         3.87453086688787    9.43714014451060    7.29089650793775
C         1.92220240708898    9.77434201744063    8.09997212796275
H         2.18042624682407    9.41042908238661    9.08282150683314
C         0.64208092267800   10.23587929389311    7.84282220140885
H        -0.10089054438674   10.23480477573168    8.62698110829701
C         0.30306336570655   10.69983029929573    6.58735491981526
H        -0.69509473255497   11.05799229313169    6.37586926034817
C         3.92779023328089   10.26751353578067    1.77722168464530
C         4.05526934227458   11.26231163672215    0.80005601802542
H         3.35789428228303   12.09329848103408    0.81386618983728
C         5.05285222675314   11.17682982723731   -0.15094240617546
H         5.13930565011983   11.94892979453850   -0.90164168689908
C         5.93415578779930   10.10730818915015   -0.15266629710840
H         6.70587878968475   10.04066432043314   -0.90448518133811
C         5.82547427069324    9.12861699198710    0.82104104659662
H         6.51349596460683    8.29611742204144    0.83034795887303
C         4.84067069856628    9.20617936769125    1.78571547771711
H         4.75756618482080    8.44841444201911    2.55216765554654

