49
CSD_code = WEKNOS | q = 0 | S = 0 | Stoichiometry = C18H20Cl2N4NiO4 | MND = 6
Ni        1.50639786200140    3.30052810400981    4.79081173683530
Cl        0.76604968536457    2.88834595916745   10.11374440341705
O         2.86112394204941    2.02281663252034    4.47336260179774
O         0.45613363499277    2.59573800127804    3.37566883459223
N         0.31118406732502    1.88293799709860    6.33321643931090
N        -1.20898571791220    2.87266603366228    8.43609057420583
C         0.83965597611174    2.05745226563753    7.54028229747931
H         1.88139027026275    1.80007980832369    7.66979967587612
C         2.93233041375148    1.17993075595897    3.54154958396897
C         0.76148667928133    1.68296617263786    2.56388581609407
C        -0.99196068257406    2.14593298842582    6.19259647449150
H        -1.41363695568402    1.97675960164338    5.21246475408179
C         0.06964962034438    2.58287770855988    8.57463147625733
C        -1.74621882633025    2.63319701746274    7.24719352068133
H        -2.80083883071917    2.85103440613940    7.15446537562604
C         1.95289606223939    0.95728420444250    2.57243420862790
H         2.11895057862619    0.20653190778505    1.81811006005884
C         4.19732095959551    0.35270226332009    3.46458209491154
H         4.85123878413872    0.60647435265462    4.29451135541796
H         4.70717851657428    0.55539172382867    2.52464419565459
H         3.95327574446340   -0.70629452910611    3.50194800302134
C        -0.24644030015735    1.36887841246088    1.47952368098539
H        -1.14333116259972    1.96366000963106    1.62809855440356
H        -0.49927516578480    0.31183638023486    1.49633525077300
H         0.18238368415835    1.60324466562822    0.50753130556883
Cl        2.24116723097500    3.71293544129086   -0.53056180783771
O         0.15347342720589    4.58005519410385    5.10657920920034
O         2.55714863407759    4.00541424775354    6.20530496940206
N         2.69827367076178    4.72171809557636    3.24874239864658
N         4.21783447109271    3.73280510885629    1.14511767465268
C         2.16902780779535    4.54635118637501    2.04209189063916
H         1.12691576607703    4.80261310447940    1.91333201826508
C         0.08199491367904    5.42265277911488    6.03863562204776
C         2.25185688929924    4.91796177692259    7.01735638576050
C         4.00185017642030    4.46037146229012    3.38839217258194
H         4.42437446424006    4.63138983654791    4.36783976748972
C         2.93877186315999    4.02116150847474    1.00746647378714
C         4.75582230564321    3.97354032425959    2.33339306643864
H         5.81097436769507    3.75780454997220    2.42507281619841
C         1.06046338449059    5.64374563940866    7.00900818121093
H         0.89406643030982    6.39379651023314    7.76394981556144
C        -1.18305762045451    6.24978727517025    6.11517304801226
H        -1.83609316212673    5.99649840955546    5.28441743796529
H        -1.69398444974864    6.04700165868229    7.05452832302789
H        -0.93852686452409    7.30864667680638    6.07836476016380
C         3.25975639583265    5.23182676214050    8.10180692201511
H         4.15609480250315    4.63602434490419    7.95374482145593
H         3.51368689135110    6.28863240860244    8.08376910300644
H         2.83064936472775    4.99899285506788    9.07409265616965

