45
CSD_code = WEKPEI | q = 1 | S = 0 | Stoichiometry = C21H18Cl2N3Ru(1+) | MND = 9
Ru       12.25758731781696    9.37417963167885    3.36773519826299
Cl       11.25897113938312   10.48711456605607    1.57832341234056
Cl       15.42151359424346   11.72046866071828   -2.29149897831251
N        10.54646886997909    9.80552438072650    4.35164711013778
N        12.45896060276992   11.75018862484133    5.15197296156771
N        12.84829297104826   11.26235431885681    3.96316998572958
C        12.38377504924536    7.32604671542448    4.41057535782513
H        11.86895245479035    6.94101346171588    5.28488829135487
C        13.65878555406976    7.89740326771816    4.54408414655752
H        14.13826305432187    7.94742937858730    5.51454361546451
C        14.37551897170581    8.28249016058850    3.38451804473589
H        15.39899474594085    8.62474508416496    3.48907634116376
C        13.81626867706276    8.11418764133961    2.11282320727385
H        14.38830143150493    8.34878288399431    1.22389595047295
C        12.51986209023901    7.55530247670016    1.98784290022236
H        12.10969077651765    7.37700380020068    0.99997711082330
C        11.81897766307430    7.13273385591807    3.12445499904064
H        10.88200533484512    6.59723538409806    3.02282641941000
C         9.40199150971618    9.41389647764307    3.78528783220530
H         9.47818367938154    8.95612889942394    2.80663247293738
C         8.16921683715556    9.61210565914460    4.38063589609510
H         7.27529950633718    9.28029506516240    3.87878434314735
C         8.10915811828088   10.24652930630760    5.61114539349718
H         7.16546855108367   10.42275371570448    6.10151268725759
C         9.29684370553882   10.66323471391464    6.19371605296263
H         9.29680859978344   11.16854989754967    7.14627593181908
C        10.49493153999798   10.42500687233863    5.54073575450853
C        11.81864053580645   10.88738392398878    6.10934248167497
H        11.67317020561352   11.43387967864392    7.04142528666641
H        12.46703515720952   10.01882626639893    6.29737985110431
C        12.64819234978345   13.08045372177089    5.20790795421494
H        12.40729177733034   13.65251790393090    6.08108129911286
C        13.19112069097102   13.46790205256102    4.00771648206288
H        13.48673017169993   14.45115395822067    3.70807223923937
C        13.30087224666983   12.29384566404618    3.24436538132022
C        13.83236187859350   12.16251998008009    1.88971617228942
C        13.34234596030675   12.96861092492741    0.86393207889791
H        12.55823897616099   13.67943191289996    1.07282101742028
C        13.82542972107485   12.83150029689456   -0.42156161985730
H        13.43344023234902   13.44146218674565   -1.21943478741882
C        14.81973259629671   11.89887267329319   -0.68782256521475
C        15.34319644023903   11.11689012265302    0.33221798245697
H        16.13868246942463   10.42012700553918    0.11829232760277
C        14.84618088500400   11.24931382671917    1.61476510582290
H        15.27964535963458   10.68220300016924    2.42480087410539

