32
CSD_code = WEKPIM | q = 1 | S = 0 | Stoichiometry = C14H13ClN3Ru(1+) | MND = 9
Ru        5.12255614652790    2.43248817899012    4.04744642440607
Cl        7.01631308741181    2.20084626854230    5.39607967077712
N         6.27967705248885    3.76836522183977    3.07220562425617
N         6.32548201684123   -0.05653634198333    2.66347968367234
H         5.76139278191469   -0.71895471248251    3.17875213659870
N         6.17751049723626    1.25437368007664    2.81140529762030
C         3.85146373574443    2.62265910489401    5.96126673166981
H         4.13783409719219    2.76052617776475    6.99835853998732
C         3.68729520584431    1.30992988136244    5.45003869636054
H         3.83206681518991    0.45720772223370    6.10320196935615
C         3.23283982746034    1.13011690854151    4.13381082607875
H         3.01041534323700    0.13196643470952    3.77032620058789
C         2.94807452524853    2.24711584214320    3.31100056779605
H         2.51756337126952    2.10317997226871    2.32735479199090
C         3.14444806829164    3.54411549732849    3.81623867446422
H         2.86344660261445    4.40214546763046    3.21477034502846
C         3.56959505730092    3.73361442962825    5.15737725654488
H         3.60114742705537    4.73072720540560    5.58168230302870
C         6.28538876542729    5.07188239315612    3.33844035941102
H         5.57787955476948    5.42429129620175    4.07787733498849
C         7.15785149609159    5.95347630146658    2.72660132860229
H         7.12345336482494    7.00100741515376    2.97704054032152
C         8.07456078279859    5.46692473464110    1.80278410229723
H         8.76872878541078    6.13173813768528    1.31426020853542
C         8.09087989880446    4.11059263806640    1.53559000913711
H         8.79680153208614    3.68208054551054    0.84347249231499
C         7.18466697521186    3.28252997437643    2.19168253670154
C         7.12599256703670    1.84375188525754    2.06887956993255
C         7.88362918965998    0.85750148588617    1.41322659999941
H         8.70902842218351    1.00284527698938    0.74924600634005
C         7.34516067981214   -0.33703532508897    1.82639640935856
H         7.61665632701338   -1.34257369819565    1.57640676183472

