64
CSD_code = WEKQOS | q = 0 | S = 0 | Stoichiometry = C23H34ClIrN2O2S | MND = 8
Ir        0.64630431635894    9.62467983855225    2.99394153438768
Cl        0.76108204887511    7.76497180052174    1.60512802955787
S         3.14129110956163    7.98138993790300    3.80099663008054
O         2.03563186438511    7.50660868145756    4.60101976168631
O         3.75925398762321    7.06430779548430    2.88148953797642
N         2.71272527252758    9.40256718423976    3.13549461790458
N         1.36861816272081   10.61949123729813    1.13488617056676
C         3.45139380053032    9.70232118397196    1.92739777623730
C         2.79675798520276   10.92531455731621    1.27838637434878
C         4.92947922841872    9.99154110753395    2.20052986686288
C         5.63261989348910   10.35461512639401    0.89492403191125
C         4.96487929884136   11.54951025687323    0.21898581913369
C         3.48649380955287   11.26548552241398   -0.04011849381395
C         4.40118250584494    8.45494235661793    4.99506293190467
C         4.31311265404504    9.67270932647756    5.63825910587759
C         5.25901811093695   10.01715740110922    6.58920046185188
C         6.29555296499275    9.14639205615409    6.90337734414796
C         6.36860447465907    7.92300493610186    6.24378304972237
C         5.42470424374752    7.57638868361264    5.29381851312781
C         7.32318566185276    9.50338037754420    7.93477924230703
C        -0.79541961903360    8.91557099767324    4.55025303304370
C        -1.51713581866986    9.55830801555292    3.48320330764260
C        -1.09189427716010   10.91286886657547    3.43998884212275
C        -0.11647036138206   11.12068747074881    4.49030595964463
C         0.01330340596301    9.89969681975576    5.20371348625919
C        -1.01003079696860    7.52874431549175    5.04915804735918
C        -2.60834124604955    8.91895326320504    2.68374608409180
C        -1.67591539978543   11.99416555397602    2.58429386699744
C         0.44105863163244   12.44565000098170    4.90410487555382
C         0.76224679400433    9.65266623813620    6.46711888506158
H         3.39272316834080    8.84750576810307    1.23456517008808
H         2.88541421466878   11.76797670497650    1.97385672639520
H         5.00873781148453   10.80911839928780    2.92055417288668
H         5.38386724338853    9.10373686638516    2.63939081597192
H         6.68076920763338   10.58377525664466    1.09513949496251
H         5.59889272084296    9.49439627589406    0.22425054335081
H         5.05538341453847   12.42765402488196    0.86247257987188
H         5.46810363270096   11.77160025764314   -0.72381171674067
H         3.39043894289799   10.41973787453178   -0.72424446126479
H         3.01253749707564   12.13604186485683   -0.50220071049692
H         3.50669518553864   10.33633139477526    5.37053088027595
H         5.19379994640970   10.97138734577576    7.09320917773312
H         7.17198240046231    7.24020146089957    6.48017346656906
H         5.46686105633847    6.63614905939817    4.76686473643521
H         7.26792048743914    8.81261218852735    8.77529811443310
H         8.32478787775219    9.43271215633187    7.51362232840059
H         7.17085052853940   10.51325163519749    8.30655997507004
H        -1.49297988180984    7.55262006190498    6.02725552173627
H        -1.62394783798156    6.95774221560265    4.35901928822708
H        -0.04542992662077    7.03511705948763    5.15343842580572
H        -3.40581519945432    8.58088851151479    3.34555223636525
H        -3.02778226743733    9.61654955833474    1.96416932279377
H        -2.22176124320260    8.05686926962509    2.14258800430406
H        -2.53751275802532   12.43285929684097    3.09052840500011
H        -0.95524483761348   12.78873977607875    2.40416205011627
H        -2.00954987989867   11.60121289092989    1.62657857660345
H         1.41421973882958   12.32493130625844    5.37360338178250
H         0.55461941410179   13.10902581518702    4.04977913113533
H        -0.22688565065235   12.92812027045565    5.62041767874654
H         1.40964332627826    8.78672882840080    6.33857418008792
H         1.36185982059234   10.51186049128068    6.75433637705390
H         0.05742780960055    9.43370559959358    7.27069443914197
H         1.25804311147211    9.84895473804553    0.46547748756710
H         0.85883821904622   11.42609486670423    0.78066550602358

