62
CSD_code = WEKQAE | q = 0 | S = 0 | Stoichiometry = C25H29N3NiO4 | MND = 6
Ni       -7.47861839661239   -0.94204022814024    6.72768860633251
O        -8.54425622072208   -0.63850837752813    5.23419852780375
O        -7.12589951915595   -0.94922293079039    3.54242084445159
O        -8.82672653247229   -0.60303803937665    8.09027167737064
O        -6.79018102522477   -1.20442371935012    8.50288896289761
N        -6.43678410675144    1.14548412361692    6.56794407188551
N        -5.87995415274865   -1.36492078282491    5.77573180676356
N        -7.74236165083535   -3.23805413679047    6.36398115881860
C        -6.92467609603685    2.36544058751470    6.71155075588204
C        -6.36345713272160    3.47713421850056    6.09993293436026
C        -5.24776777900546    3.29454799090136    5.29796621061935
C        -4.73486455260515    2.01830625308532    5.14169762655922
C        -5.35848976556359    0.95995530122777    5.79937493965943
C        -4.92531782882964   -0.43875091521582    5.63795743996513
C        -3.61918997480879   -0.78757136627258    5.30602354933430
C        -3.31101937602944   -2.11891481546579    5.08901330880551
C        -4.32471144465577   -3.05873194282100    5.15670281967012
C        -5.60801627338790   -2.64400629526457    5.49743230926964
C        -6.76182455981807   -3.55975916178587    5.51340599805660
C        -6.86437698800443   -4.64229608483856    4.64345874073162
C        -8.02348049540718   -5.39917667560324    4.65802672139431
C        -9.03709644439747   -5.05773440952208    5.53980293145390
C        -8.84576125644460   -3.96744680206612    6.37567534291678
C        -8.24049423435852   -0.74413428275172    4.00531096630388
C        -9.47824203579261   -0.63489054590091    3.07152915627094
C       -10.31620627124937    0.57500468957934    3.48217236417837
C       -10.27575426312074   -1.92632381850218    3.28020850070412
C        -9.02752040066571   -0.51454354922886    1.61916279281914
C        -7.93322957192631   -0.88971502257962    8.92793405620219
C        -8.24810312322345   -0.87002562015969   10.41690191041106
C        -9.26873497224547   -1.98515483978317   10.67291362154558
C        -8.86655099981407    0.48884756745249   10.75591154991745
C        -6.97720351155653   -1.10809054183762   11.22740256430302
H        -7.80021085343675    2.45238260682027    7.34169180007117
H        -6.79133411466818    4.45684804808700    6.24365397646875
H        -4.78851947629376    4.13243093487245    4.79373144776669
H        -3.88883296753818    1.84374835971724    4.49653568358470
H        -2.85536885362831   -0.02989647586988    5.23410709973028
H        -2.30102952431561   -2.41683422202836    4.85067456744367
H        -4.12376621179450   -4.10091831515393    4.96562890391112
H        -6.07159645322649   -4.86219321047840    3.94646660039613
H        -8.13753344126350   -6.23613865731750    3.98449795591883
H        -9.95616220876395   -5.62123698475974    5.57563565877054
H        -9.60575716148394   -3.66189451609946    7.08291584688006
H       -10.57194528017040    0.50656743633308    4.53610945493889
H        -9.75696201980945    1.49498667314310    3.32275240597263
H       -11.23145192270167    0.61728334026260    2.89342024084666
H       -10.56849516346586   -2.01460178760394    4.32387422291700
H       -11.17056765511740   -1.92326738735380    2.65922806505515
H        -9.67070096998872   -2.79245024950787    3.01553420665398
H        -9.89111987934691   -0.50935677595938    0.95642288315455
H        -8.46477583821660    0.40433024118082    1.47261444092416
H        -8.38117963217031   -1.34816215568894    1.35689262390011
H       -10.14745197125753   -1.83257495537126   10.05058309628173
H        -8.83760273400826   -2.95574023510521   10.43504142730614
H        -9.57210688304537   -1.98482010187199   11.71837608516530
H        -9.71778915706304    0.67880657204887   10.10653100565555
H        -9.20014226984905    0.50388704748545   11.79183245338796
H        -8.13747261681061    1.28412970479163   10.61322105593892
H        -6.52852297949407   -2.05996667255607   10.95414832463951
H        -6.24920184974736   -0.32495864217788   11.02902504834601
H        -7.20552895513119   -1.11623544732007   12.29135865031427

