44
CSD_code = WEKVUF | q = 1 | S = 0 | Stoichiometry = C20H16ClN6Zn(1+) | MND = 5
Zn        1.65032600045483   -0.55662046725879    4.07217689037027
Cl       -0.13305501033644    0.63159409468015    4.40718263683777
N         1.83668744526911   -0.29735213903825    1.99755482131763
N         1.92764050872496   -2.58275910086832    1.39714171133385
H         2.00398212208900   -3.19042226914174    0.59032283093045
N         1.55971619258074   -2.62169002892231    3.72167778007334
N         1.71642668497623   -1.29436590444897    5.99028689965671
N         2.19374773580680    0.78597099468487    6.92200833585514
H         2.03573639234995    1.37973149679133    7.72628447297120
N         3.17691298387095    0.74308141333801    4.77212243535968
C         1.74906233244101    0.97837646797945    1.60259956234652
H         1.66615110764803    1.70566920626843    2.39681689754344
C         1.74357754036947    1.36753279651458    0.28270770873361
H         1.66722189022781    2.40965878038841    0.02271048969390
C         1.83369877173665    0.38340185969030   -0.69803430296589
H         1.83852251828083    0.64401804430956   -1.74475446074503
C         1.90190858471808   -0.93334892202668   -0.30554818476771
H         1.95530773797127   -1.72476142772706   -1.03729206489322
C         1.88478462389505   -1.24730593281497    1.06354820908801
C         1.70257630547774   -3.26211370165496    2.56659847433075
C         1.63156206252644   -4.66588786681012    2.49324601748283
H         1.75260986621109   -5.16388507503630    1.54418148707256
C         1.40380254465690   -5.38388831016914    3.64334407613426
H         1.34770515068172   -6.46065491696197    3.61427587162352
C         1.24582226288660   -4.70422311879108    4.84670904433312
H         1.08388852304377   -5.24716160964843    5.76175754873231
C         1.32872012216298   -3.32128893942408    4.84577543222663
C         1.18760567903519   -2.51993003011259    6.07013172941239
C         0.53628647573558   -2.96161212952338    7.21096517757734
H         0.08800349999969   -3.93915464592946    7.25783721160338
C         0.42891392796411   -2.08726572948364    8.28932570576359
H        -0.08884963361343   -2.39509271613884    9.18425952774353
C         0.97818751971614   -0.82803345393788    8.20378386778775
H         0.90253532621909   -0.13131765541858    9.02334611734296
C         1.62652300884380   -0.45633088282935    7.01409978945875
C         2.96711435529146    1.35699832839230    5.94164033054565
C         3.55650343601909    2.59917254653816    6.23375004010966
H         3.34136282473368    3.08516064568239    7.17272820658157
C         4.40306244260237    3.18036696981480    5.31971299387639
H         4.86089065594327    4.13513867085159    5.52529188265458
C         4.66803862596025    2.50381310548154    4.13105575701389
H         5.34606895498625    2.90756269376285    3.39820153014984
C         4.02907421718019    1.30572747052701    3.90823477915555
H         4.19853568266112    0.74919138842127    2.99773473254706

