36
CSD_code = WEKWEQ | q = 0 | S = 0 | Stoichiometry = C17H13CuIN3S | MND = 4
I         1.81919214130390    1.94766986684976    1.33955152813764
Cu        3.61691746714899    1.44045684149440    2.99584385164256
S         5.49957161689789    2.92730087410202    3.22690936154423
N         3.26054869273784    1.08772334120366    4.94733421936728
N         4.60322720104682   -0.31484024593151    3.09871853831514
N         4.27845566548560    4.34433305917808    1.34696699783327
H         3.55291089029247    3.61009565406313    1.39061384959404
C         2.60481663454136    1.80370427160000    5.83621136767701
H         2.06470408266732    2.66089952503200    5.45691323915602
C         2.58510334015591    1.48791555611937    7.19408672880297
H         2.02727393552535    2.10707616863093    7.87870871863884
C         3.27581339943274    0.38057110476508    7.63743024154075
H         3.27721972321792    0.10434434695404    8.68197196849799
C         3.98792723157683   -0.39741845127243    6.71203721936844
C         4.74263306230386   -1.55206656567494    7.06649731135148
H         4.75980325343317   -1.84802915876238    8.10554739524804
C         5.42592854260058   -2.25803003116896    6.13287690085722
H         6.00059099689660   -3.12995583868991    6.41025098467168
C         5.41353373137696   -1.87331274160052    4.76160688525742
C         6.11229134138279   -2.55773004549747    3.75560772576099
H         6.69466541871218   -3.43185910648018    4.00862023091656
C         6.04123153418717   -2.09983760336560    2.45744078574769
H         6.56574906519365   -2.60259530925754    1.66034896903103
C         5.27065985394705   -0.97285213348540    2.17429057425713
H         5.18738548096991   -0.59628027255396    1.16357535491414
C         4.66499162206566   -0.74043671968148    4.37605348041184
C         3.94812703147010    0.00457975154872    5.35956393183590
C         5.35295438688743    4.22093708186216    2.16708144378835
C         6.33879961837746    5.23608539943571    2.08179404920480
H         7.19737647437183    5.15067636698516    2.72790672706701
C         6.19086558505169    6.27328651881432    1.20872308973195
H         6.94422108471268    7.04388475091549    1.14621791139360
C         5.05066118344896    6.34544020224344    0.38096468243305
H         4.92188970217751    7.15840315809501   -0.31261087423401
C         4.11597643356241    5.35760901729829    0.48146102249593
H         3.21428257484046    5.32985136622810   -0.11151641225507

