41
CSD_code = WEKWAM | q = 0 | S = 0 | Stoichiometry = C18H16ClCuN4S | MND = 4
Cu        1.01870185208840    0.87275001468890    4.08636998653359
Cl        2.47189345123947    2.45711096988536    3.47396703280524
S        -0.00859200043542   -0.22692766351527    2.30531408124630
N         1.65079883441748   -0.47358948876476    5.45992964719299
N        -0.17337445015571    1.50124595069903    5.58530895604234
N         0.20480017818610   -0.13531360690508   -0.29159419717654
N         1.45299916255766    1.46219445046294    0.87473100591265
H         1.78726324609067    1.85298393763303    1.79360145696008
C         2.53294290925375   -1.44680946207770    5.36984012180330
H         2.97510179549865   -1.59932960179135    4.39508531614331
C         2.89355304135641   -2.24284293871343    6.45623892970194
H         3.62704124634073   -3.02304497720340    6.32795734119902
C         2.30689803960134   -2.01307329768830    7.68237831505825
H         2.56660911635557   -2.60737719794817    8.54649388149604
C         1.36063793692285   -0.98520676252681    7.80558335311264
C         0.71243321510772   -0.65801381339499    9.03113467510585
H         0.95446585915340   -1.24416102336014    9.90592342572757
C        -0.17158805354795    0.36598497836952    9.10435037727852
H        -0.64991402064704    0.61857954575344   10.03965905733573
C        -0.49737428245939    1.14268953474577    7.95531337761031
C        -1.39535815044641    2.21988154858026    7.98069869476546
H        -1.87472478788548    2.49540606747122    8.90889734230605
C        -1.64869302544218    2.91012686015298    6.81423861574063
H        -2.32922174961536    3.74674137709420    6.79993042441939
C        -1.02168646230675    2.50801710010798    5.63606405494789
H        -1.21274183934224    3.01567627287535    4.70081761122381
C         0.10861776310472    0.82776854667668    6.71889726915862
C         1.05912658117674   -0.23478677676537    6.64723863194996
C         0.58669728792558    0.40324878384811    0.87028406718453
C         0.66058467656809    0.35204110252201   -1.41944908984026
C         1.55162636061827    1.44466738243253   -1.45723093463563
H         1.91597527187511    1.83440116869105   -2.39277880745541
C         1.94181976105475    1.99104076554551   -0.25594239698155
C         2.86345408628767    3.15109682122138   -0.12154457155909
H         3.70311908240646    3.05621685795994   -0.80553938486706
H         3.21978999346104    3.22696141054183    0.90339923851970
H         2.33087212475214    4.06890717979101   -0.36875898097157
C         0.19642697022581   -0.29751781736378   -2.67930342322114
H        -0.42947692339654   -1.15051380432791   -2.43801177843657
H         1.04951707321236   -0.62219673148883   -3.27194372841030
H        -0.37512117116960    0.41336633608255   -3.27374899492863

