51
CSD_code = WEKZOE | q = 0 | S = 0 | Stoichiometry = C20H22I2N2NiO4 | MND = 6
I         3.73569897788192    0.13835370714450   10.88428037168885
Ni        3.14716907678535    4.81328833486868    7.69661499510505
O         4.42595078399193    5.83183917420678    8.64757439209230
O         3.89477144505402    5.35462312813242    6.03624327292501
N         4.58311306695292    2.85683082851274    7.64775492867017
C         3.97864473829022    0.97763427157645    8.96201923504247
C         4.85089168947074    6.14727760577346    5.83680816272417
C         4.46182424329004    2.26805505391030    8.83110725118389
H         4.74466756328960    2.85887456392983    9.69245280452868
C         4.29427994423614    2.15320382231356    6.55584622106405
H         4.43226132032545    2.66917061565025    5.61557314432332
C         5.31112043577379    6.59566933806248    8.18446672792991
C         3.64682726262799    0.24706917459896    7.83500365472027
H         3.26338430688081   -0.75932926763563    7.91394886965935
C         3.82929220278049    0.84885938297908    6.59981474974859
H         3.60118826102013    0.31300723151982    5.69142232329476
C         5.57351020948858    6.81000361025515    6.83068939358339
H         6.36628702790701    7.48257855682073    6.54710748741599
C         6.15983084506837    7.34513639320850    9.19120951874810
H         5.80396435594296    7.13567058553565   10.19605885694556
H         6.11080956860197    8.41462269936002    8.99998780028389
H         7.19677822615739    7.02884067615074    9.10340389108951
C         5.24272150495245    6.39717932614037    4.39574466659520
H         6.20529853873487    5.92965415199260    4.19787122118694
H         5.33586191708406    7.46291382065665    4.20433255730783
H         4.49634827499803    5.96895453357056    3.73232027348559
I         2.55746705359234    9.48701304833173    4.50771980378484
O         1.86844055671523    3.79470534020996    6.74562275990590
O         2.39946480426369    4.27206561826367    9.35696682711469
N         1.71111202995773    6.76967545756936    7.74544169273393
C         2.31513174304365    8.64841707622171    6.43033174935883
C         1.44331404237410    3.47944616769023    9.55637451456553
C         1.83198776480113    7.35804614142879    6.56184747194528
H         1.54887678031322    6.76692294300053    5.70079789314645
C         2.00030699878180    7.47368124053289    8.83701043188034
H         1.86261191944196    6.95804548870416    9.77750828764235
C         0.98331324256627    3.03081322833643    7.20871753056111
C         2.64733978667661    9.37937162477236    7.55697871909484
H         3.03075380070439   10.38574450934588    7.47755393827881
C         2.46527721250522    8.77801302476482    8.79243515724370
H         2.69367102661483    9.31418516346728    9.70056692782699
C         0.72082190677823    2.81658334592584    8.56248626272712
H        -0.07193222493370    2.14398122084252    8.84606760652478
C         0.13480709877862    2.28113813443743    6.20195581196073
H         0.49066760871423    2.49066379130350    5.19711612280096
H         0.18405916933475    1.21166300650291    6.39319376796436
H        -0.90221234148292    2.59720228619913    6.28971743208485
C         1.05135874268533    3.22962208895034   10.99741604590081
H         0.08822461456115    3.69615274100386   11.19488588679521
H         0.95931990267564    2.16384168389703   11.18913612034301
H         1.79712097294556    3.65882430906505   11.66089446646916

