52
CSD_code = WELBIZ | q = 0 | S = 0 | Stoichiometry = C18H26Br2N2NiO2Si | MND = 5
Br        1.88829116176098    3.99841285358410    3.43132384303359
Br       -1.03606499982167    0.37432017284901    3.49220287258326
Ni        0.49587429333134    2.09412897316451    3.21466072712439
Si       -6.85202570955935    4.79751484462865    3.66284032709232
N         1.73012596766525    1.45276506774278    1.36705109189392
N        -0.52375916479269    2.87404753060548    1.93155428892837
O        -5.82020154654893    4.38947137699057    2.44230476824620
O         1.64365052775974    1.23253425782073    4.70895162764538
C         2.84481573167637    0.77974870688704    1.13209294597999
C         3.54565151189358    0.92944346190381   -0.06661167360531
H         4.45550261860385    0.37229479736909   -0.22693744760986
C         3.06372110124145    1.79418342678387   -1.03297136230890
C         1.88917512462856    2.48486551920470   -0.79056394630575
C         1.24906934795705    2.28968035919182    0.43244703673417
C         0.00563641466445    2.94792877721663    0.75608488029093
C        -1.84294850547195    3.29742206887687    2.11778501194925
C        -2.76258654174419    3.06711954885942    1.08406108159218
C        -4.08875101089411    3.42245070233992    1.18198236223522
C        -4.53047662004578    4.03695353064997    2.36506024185401
C        -3.63372566360069    4.23891975379044    3.40294351647796
C        -2.30041734656484    3.87369020622566    3.31541729535704
C         3.32444209545538   -0.13369360852281    2.20950097205907
H         2.49080605407806   -0.40403772120783    2.85396112122410
H         4.07170111331658    0.38080596968306    2.81404691945731
H         3.77603494642173   -1.02993260152263    1.79216108223858
C        -5.06774831437287    3.15248601333494    0.08373454456120
H        -5.52673071277157    4.08441706995796   -0.24314883762445
H        -5.86519225775469    2.50811189919545    0.45068998964771
H        -4.58446950640425    2.67331831411656   -0.76308774467677
C        -1.40611225770302    4.10466262308693    4.48857615089843
H        -1.99099665625089    4.33160589310613    5.37582117511591
H        -0.72152344000457    4.93251438165712    4.30212171637297
H        -0.80396387309933    3.20177248590082    4.69630643404597
C        -8.47233861452026    5.00199654281989    2.69716653574145
H        -8.40033119644928    5.79726533831206    1.96196467400345
H        -9.28776236887350    5.24781958713304    3.36837598143160
H        -8.74162166009781    4.09208785024826    2.17051341515992
C        -6.94504906023792    3.39155827272856    4.94598159314201
H        -7.27894357544112    2.46599957531004    4.48542018993547
H        -7.63778695316490    3.62562461091760    5.74769055046804
H        -5.97659512708037    3.19261036500368    5.39693522722165
C        -6.35014644959455    6.43609271305222    4.50495782210321
H        -5.93285677496102    7.13493176492561    3.78490253496863
H        -5.60960618242365    6.29286761610213    5.28703277389067
H        -7.20849768451562    6.91608585280307    4.96395489728338
H        -2.43326342759616    2.53959532178355    0.20017137507066
H         1.47697815852305    3.16738144785654   -1.51688974289629
H        -3.99732994128352    4.69176030663473    4.31143483725004
H         3.59399701310091    1.92725442695020   -1.96422032875973
H        -0.48672651736556    3.50765763408836   -0.03469272698934
H         1.16430588626003    0.65783536077487    5.31959897207599
H         2.17877059270356    1.86914875706031    5.20183840639515

