51
CSD_code = WELBUL | q = 0 | S = 0 | Stoichiometry = C22H26Cl2Zr | MND = 12
Zr        6.97276609587484    0.64319893453413    9.85057025842505
Cl        8.53819901821671   -0.98446712139812    9.24059939963271
Cl        6.45827703682640   -0.66203781705271   11.72249375431874
C         8.84089279035901    1.69342666243903   11.04661957215343
H         9.59194607603630    1.11942219700584   11.57491646393239
C         8.94609275653631    2.15877545067259    9.70410410699709
C         7.79527420194557    2.95804819081163    9.45068882569689
H         7.62963096911487    3.55998909820027    8.56668050068183
C         6.99536892373370    2.97818019302617   10.61338517894552
H         6.12988862560405    3.61005685873083   10.76926539163846
C         7.65426019966310    2.21738162747686   11.62430409865556
C        10.07693220496749    1.96341548834713    8.79342634578355
C        11.05695561723721    1.09467122464055    9.04076470950550
H        11.88772821809730    0.98478059151169    8.36556599082805
H        11.05706330178162    0.44856468739397    9.90087470672371
C        10.10747964386587    2.84518060749252    7.57512556496200
H        10.98662388495113    2.62950116523599    6.97460616946308
H        10.13896212766188    3.89291608456489    7.87314543586032
H         9.22001335616875    2.69190020918717    6.96387921907398
C         7.19996280449062    2.05667481938274   13.00792766201213
C         8.01789393697373    1.68499281949772   13.99086352673475
H         9.06169773407881    1.48227209841689   13.82702255274754
H         7.66288701675697    1.56802672145979   14.99966486303021
C         5.74868649246781    2.35954394068443   13.25959889376897
H         5.47575398899611    2.08003432791357   14.27312581387220
H         5.12167909828084    1.80493048352033   12.55803840641786
H         5.55324886272366    3.42460701177234   13.13310925758776
C         5.21612055175778    1.65862591392484    8.44568270349181
H         5.04445897068257    2.71943695887171    8.32812314142979
C         6.01939713367589    0.85950544006829    7.58789348425679
C         5.80882903643132   -0.50175991496207    7.97000933254013
H         6.19000800980400   -1.37365836530657    7.45371142470090
C         4.91341720004860   -0.53021490065141    9.04660392104462
H         4.50835611091921   -1.42841997184085    9.49483056451043
C         4.54283372630668    0.81285697590360    9.36887830108320
C         6.86032254111544    1.32078342291047    6.48269849836699
C         6.72576662854797    2.52879162602248    5.93108436394652
H         5.97130641003576    3.22840591309602    6.24738955416085
H         7.35202204143434    2.84725808202547    5.11532941868560
C         7.89502939008667    0.34517545402661    5.99537982625698
H         8.54097923637675    0.80709579405008    5.25298895739294
H         7.41157959649608   -0.51521928360012    5.53394747887380
H         8.50449990032695   -0.01428962896387    6.82880434045975
C         3.59263678477488    1.22001367610658   10.40400745987485
C         3.22239720749610    2.49034690331561   10.58534243503070
H         2.51621292847184    2.76166715393893   11.35050505592427
H         3.58901719023372    3.29856652695891    9.97596653910089
C         3.03387440149289    0.12128967486694   11.26349298570734
H         2.37946631809830    0.53009881981851   12.02878380714602
H         3.84189923418401   -0.43019398279213   11.74561948828247
H         2.45960446675982   -0.57624884280594   10.65516024941077

