105
CSD_code = WELCAU | q = 0 | S = 0 | Stoichiometry = C42H44N10NiO6S2 | MND = 6
Ni        0.46241904428821    1.90822095271252    7.49632255880747
C         2.77431364979068   -1.88003368400791   11.73178500078857
C         2.63627558285766   -0.58977229519782   12.21657753422693
H         2.91957542727584   -0.34499937304073   13.22828311211169
C         2.12855741665910    0.38976811995794   11.38125150296253
C         1.75057835453078    0.10117006280818   10.05261721746825
C         1.89119239008932   -1.20163239850224    9.57460033452861
H         1.60286965815074   -1.42903739144934    8.56009350112962
C         2.39736986121494   -2.16692941579116   10.41268172795755
H         2.51166042575393   -3.17757046413544   10.04987669251505
C         3.32248887559790   -2.97114425629584   12.59657979087095
H         3.55900076480818   -2.60154248323402   13.59036160315901
H         4.22741786354001   -3.38421899151823   12.15302085437517
H         2.59967598706134   -3.78076563806400   12.68706004318427
C         1.27110469839999    2.26585094019513   10.09314602147614
C         0.00635820939055    4.56743373348460    7.82633875519806
C        -0.41724148175003    4.34079500227518    6.45082504264877
C        -1.04298086976548    6.68755778346232    6.23966677925293
C        -0.59126763907802    6.87425829871551    7.61634941634464
C        -0.08134278853371    5.86884104177996    8.39937155459349
C        -1.34643535946520    5.12136817082457    4.37304140157659
H        -1.42452722281205    6.07907893088866    3.85792117184770
H        -0.59371257912227    4.49165873408608    3.89360118716935
C        -2.70408895802896    4.42075818422438    4.35464777695966
H        -3.44611975564571    5.06753843924257    4.82527549943817
H        -2.64315437196817    3.48096706231376    4.90609950201766
C        -3.13622699969107    4.12999639182826    2.92094508545143
H        -2.37975271929225    3.49845239781260    2.43096526902496
H        -4.09061109050157    3.57824262194664    2.92522593498768
C        -3.92769709883150    5.28179452760795    0.98301398084532
H        -4.85191558693825    4.68421708335061    1.08408376956973
C        -3.03886127440508    4.64152855864674   -0.08637843030043
H        -2.09003609435151    5.16996469514718   -0.13700080410537
H        -3.52921097949736    4.70116885322472   -1.05394705160714
H        -2.84620721460735    3.59485572391899    0.13680915166555
C        -4.28746363378914    6.71488858978520    0.60444027820843
H        -3.37941315777702    7.30183604107885    0.50040480153936
H        -4.89624925053862    7.16089422005273    1.38565816683594
H        -4.83676150418827    6.73182424815569   -0.33245846623457
C        -0.71688943821362    8.18716329180245    8.11938338531191
C         0.36160592870930    6.12756313889431    9.79846262906848
H         0.23185703604170    7.17598618144526   10.05459827434693
H         1.40853000466073    5.85150725710174    9.91468935514333
H        -0.20503926284627    5.51154696313320   10.49540080628217
C        -5.19685144721283    1.67348769918611    9.87516158757618
C        -4.90724695251163    0.54574788934302    9.12455753487948
H        -5.63303549749330   -0.24387161837581    9.00868564638484
C        -3.66743527238061    0.44391213287656    8.51835079557270
C        -2.69800213986854    1.46113266784612    8.64971159629989
C        -2.99835224747214    2.59186192082059    9.40924562256220
H        -2.26084121055578    3.37236944758029    9.51406360052065
C        -4.23330667085005    2.68288502157830   10.00670817325648
H        -4.47485402101835    3.55553248313626   10.59506063291095
C        -6.52209018878240    1.82470018514140   10.55302720251645
H        -6.98000421970431    2.77512322747948   10.28377308766758
H        -7.19664989882035    1.01913497215071   10.27759550902978
H        -6.39299221468737    1.81460624931987   11.63490120118473
C        -1.56466918209370    0.06013686779798    7.35808249927107
C         1.55869122248231    0.04507559946195    5.84592792818549
C         2.60024068839246    1.06153558381139    5.91138178504591
C         3.98277091127625   -0.23883804328762    4.37697082615693
C         2.92613676291908   -1.24472561873837    4.36352825259948
C         1.74513122156616   -1.12385264704761    5.05383994627629
C         4.72736384777975    1.94437859240246    5.20669801518820
H         5.66691861779780    1.51087891777589    4.85935284436202
H         4.82876546126621    2.28745972115328    6.23886263989523
C         4.30215705588496    3.09983139032034    4.30418432649214
H         4.17065752874930    2.74121815935807    3.28220148314151
H         3.35139153493926    3.50766199630370    4.65067144056534
C         5.34149074091102    4.21583283554634    4.29823874901363
H         5.49550530341581    4.59648119584460    5.32168528623502
H         6.30195208074474    3.82364722884287    3.93199614029596
C         5.58899979299472    6.46119326566875    3.52121329990157
H         5.73326830061799    6.74301005615267    4.57984289412944
C         4.72207652939000    7.50941974540238    2.83066669778335
H         4.58150440586709    7.23568832097475    1.78882218891765
H         5.19519927803871    8.48552413698321    2.88516928844495
H         3.74777884839272    7.55753331852535    3.30870572789317
C         6.95838419950160    6.35515404727457    2.84561843010786
H         7.61115856530484    5.67235303794782    3.38408171118897
H         7.43079949529744    7.33314495186003    2.82020123812797
H         6.83653888500447    5.99383046811620    1.82744119799093
C         3.18600319716619   -2.38263433023242    3.56979691870923
C         0.69582702426402   -2.17901810609377    4.97599877877610
H         1.02107672856222   -2.99789187108661    4.33938120634232
H        -0.22695128084426   -1.75654890628995    4.58082290535284
H         0.46615620657963   -2.56067619950264    5.96974402655871
N        -1.53649970222254    1.21142970710251    7.99133381006478
N        -0.55092347901842   -0.40997727522111    6.62073435779057
N         0.48264888627309    0.35920467739253    6.57495381206961
N         3.73198180216564    0.88079643561143    5.18313062926822
N         3.39046364376790   -3.31450362078027    2.93316628278735
N         1.27451501887385    1.17141060047861    9.36453675651550
N         0.85390110950873    3.45604699764078    9.64491797694170
N         0.44195620213127    3.45398026340063    8.42320745349768
N        -0.90754422999416    5.38447983435831    5.73727467723213
N        -0.81764242810393    9.24911140430504    8.54075092289883
O         2.46606084243704    2.07277096576507    6.61861280590309
O         5.02107931477481   -0.32508283520872    3.75917064799325
O         4.86323536647980    5.24386501397863    3.46774778355222
O        -0.33693158762478    3.21174658102779    5.93694841895659
O        -1.50300236480931    7.56651342169591    5.54696443102516
O        -3.28871247345201    5.35222352617592    2.24573395500803
S        -3.04632083270894   -0.84698105810986    7.52263194235589
S         1.85612807350782    2.07818951644752   11.72582075418527

