83
CSD_code = WELCOG | q = 0 | S = 0 | Stoichiometry = C44H26F10P2Pt | MND = 4
Pt       10.57092750738963   11.30699607684637   11.29166603562561
P         8.35734367466823   11.78539009836392   11.04626249131131
H         7.49373909752856   10.76489258795593   11.44720972180396
P        10.51917673135771   12.87536466482972   12.96736901063309
C         7.88721476899581   13.07921275519466   12.24357928485071
C         8.80400893518980   13.51446894884628   13.13603229054368
C         6.52851320316325   13.62688074288360   12.13340119817766
C         6.32450819762916   15.00602391061016   12.15444958943251
H         7.17081762281347   15.66728888737117   12.26875819372123
C         5.05379870831078   15.52753925389312   12.00979716921180
H         4.91117630313632   16.59762283561086   12.02328632758307
C         3.96762806734353   14.68393049291463   11.84427526335426
H         2.97530242721825   15.09341429161170   11.73212630193063
C         4.16059318060057   13.31305688275321   11.81809780112561
H         3.31857421230590   12.64990911107350   11.68786430464496
C         5.43168813722093   12.78822967139285   11.95326588483256
H         5.57192281400971   11.71609367027516   11.94449130077865
C         8.45491239645548   14.41320519915859   14.24500068621969
C         7.38613169833778   14.08223079287084   15.07939096490583
H         6.82694972553563   13.17673529284677   14.89135940085781
C         7.05169462525332   14.89441893328804   16.14466181590080
H         6.22568035692154   14.62358853777958   16.78501259750535
C         7.77244353571519   16.05186414141997   16.39133363552949
H         7.51101711502938   16.68535810522400   17.22522781842682
C         8.82559342912353   16.39404721873465   15.56107104886035
H         9.38473072774904   17.30029859159566   15.74078724690071
C         9.16812454008614   15.58057994023526   14.49618614349298
H         9.96977885583378   15.86839587594449   13.83400455208798
C         7.53038493972016   12.26424740829295    9.51439020805680
C         7.57444538748970   13.58503976235062    9.08133079322773
H         8.04831910478027   14.33661018596218    9.69846553011902
C         7.01809236622409   13.92685549794424    7.86365514661385
H         7.04679425869061   14.95279563030735    7.52850336416090
C         6.43685243840527   12.95301659979491    7.06758948163641
H         6.01177828784605   13.22110350346700    6.11219024089225
C         6.41005381289560   11.63297835111303    7.48806760388205
H         5.96701112133583   10.87391140353791    6.86085062979566
C         6.95779516063196   11.28553288014917    8.70843862067217
H         6.95191776892463   10.25549036462115    9.04192558201447
C        11.18079478543856   12.64638665098559   14.63159768518060
C        10.36636340572113   12.30414045019275   15.70554456590852
H         9.29386017160381   12.27576849528391   15.58335144421100
C        10.93358558707412   11.99208929485818   16.92757337959991
H        10.29822270859040   11.73341656102760   17.76134407806319
C        12.31015665256955   11.99257370647519   17.07909365733757
H        12.74911962206758   11.73733181242537   18.03149279225349
C        13.12707001902509   12.30046156216175   16.00246011050486
H        14.20092183071745   12.27895194741163   16.11329581313915
C        12.56773239443416   12.61931541129129   14.78039204887839
H        13.20184398695262   12.84076425412955   13.93100878863747
C        11.43735441661342   14.27568036734416   12.24977144670139
C        11.42062057844602   14.34645135191889   10.85762433385853
H        10.87596124169725   13.59585524037555   10.28521882362849
C        12.10986974959999   15.35014806263463   10.20365762373746
H        12.10042402988628   15.39150209721700    9.12555343942504
C        12.82434745841557   16.28594470088978   10.93489097018445
H        13.37036521743141   17.06670244964575   10.42726656159750
C        12.85250528127959   16.21238136885826   12.31855926009450
H        13.41928330263377   16.93488919270932   12.88726084345559
C        12.16341956012027   15.21126013816912   12.98055911003910
H        12.20085098927913   15.15106545355290   14.05971142480807
C        10.67420912987127   10.12270796911716    9.63587649709936
C        10.48247840251208   10.71072747137911    8.39038616068517
C        10.50458075210513   10.00361342037104    7.19725065608236
C        10.74461401448738    8.63445121176300    7.22962167803033
C        10.95646740703179    8.00533474670689    8.45161280113562
C        10.91654429760687    8.75411498230256    9.62218392759632
C        12.46704050504201   10.78836220553862   11.76947160686718
C        13.63437065160525   11.09407338865759   11.08378531261311
C        14.89241146411308   10.71434834700715   11.53613121669790
C        15.00227546563426    9.99967682379883   12.72423053404796
C        13.85566204802176    9.67100793240712   13.44047212527711
C        12.62078108059630   10.06641498112898   12.94835925300335
F        10.24584671280630   12.04364413947532    8.35046215819819
F        10.28596693166317   10.62002486342136    6.02601883275302
F        10.76428448360137    7.92543950482465    6.09321327591015
F        11.18705545261276    6.68546424472158    8.48797320083488
F        11.11534031710080    8.12331349524734   10.79609026355324
F        13.53877849270915   11.80183279031334    9.93818023077563
F        15.99825746922823   11.04121297530408   10.85133591429592
F        16.20915406009357    9.64324053003134   13.18531733302018
F        13.96003345716893    9.00464794550025   14.59949504662706
F        11.50413917302283    9.77414636218767   13.65082849236162

