99
CSD_code = WELCIA | q = 0 | S = 0 | Stoichiometry = C48H38F10P2Pt | MND = 4
Pt       11.07056099620216   -0.00018973688410    0.00015123805855
P         9.53120355520189    1.10844493259345    1.28009976288169
C         8.36054989164804    2.16920920892439    0.53122536404075
C         7.58568236813958    2.88859095517644   -0.04996729002054
C         6.63781897375126    3.76988576352056   -0.70968226923320
C         6.42066047465550    3.27248628915546   -2.14305368978814
H         7.35740576814995    3.27964033447726   -2.69388110025020
H         5.71223855981195    3.91831925078271   -2.65665899658033
H         6.02679339397283    2.25806450700517   -2.14097271732885
C         5.31611649586266    3.74707643111778    0.06819149659233
H         4.90740820637833    2.73904148799193    0.09612719078209
H         4.59326358408569    4.40202483607262   -0.41293388760665
H         5.46719648160062    4.08718670092943    1.09078946896776
C         7.22431077908121    5.18697746787159   -0.72420668482861
H         7.39031146094878    5.54328073972224    0.29054419915191
H         6.53748724927780    5.86610584057561   -1.22417648610878
H         8.17357308656828    5.19684357502532   -1.25481091863721
C         8.51137636818852   -0.15057005747516    2.09147185919878
C         8.98994139064783   -1.45599497193678    2.11936718630968
H         9.93816945268713   -1.69094533044498    1.64215193672293
C         8.25383441358588   -2.44390348792278    2.74793630145175
H         8.62240726421035   -3.45810557349613    2.76735757122305
C         7.04398388461756   -2.12871659945993    3.34512469889179
H         6.46693531507096   -2.89997297723060    3.83349929289635
C         6.56708117226750   -0.82675126697704    3.31634644359744
H         5.62248646403002   -0.58725171293102    3.78228214371036
C         7.29828161221722    0.16644702358159    2.69144838283009
H         6.93565348927303    1.18470769913939    2.65911753378173
C        10.14850051423274    2.11223603829961    2.66396735589359
C        10.55507073400996    1.48198486670585    3.83628964673303
H        10.40871297343559    0.41608771479848    3.95081222050096
C        11.14575757288844    2.21916444453811    4.84534440058698
H        11.46342118956693    1.72943829910897    5.75400869233019
C        11.33920516415739    3.58263604139485    4.68662013913118
H        11.81426856414650    4.15353862568024    5.47000208608364
C        10.33782168385605    3.48040760444670    2.50850802731511
H        10.03218228169946    3.95731952521013    1.58804842540813
C        10.93091595147317    4.21170313193675    3.52178850909344
H        11.08713091039899    5.27272378092977    3.39797430010329
C        12.49621603718581    0.36805764296071    1.43802789810370
C        12.92795842428784   -0.56517186722604    2.37303011370437
C        13.79910765840671   -0.26173659256395    3.41081228022712
C        14.28279203993005    1.03406991763462    3.53827364846362
C        13.88626987401408    2.00158636215374    2.62306170658226
C        13.01280784475610    1.64910053289327    1.60540206539150
F        12.45530048415318   -1.82911966647364    2.28715132729887
F        14.16456059430327   -1.20088199091908    4.30004749709710
F        15.11458094423620    1.35017207254770    4.54205668211824
F        14.33499329796438    3.26118789054442    2.74427661379524
F        12.61045555892709    2.61053899828889    0.74375248732447
P        12.60985951496544   -1.10845981358711   -1.27999168062002
C        13.78046972371920   -2.16928907997517   -0.53122678943594
C        14.55551265621497   -2.88859513659510    0.04985500987181
C        15.50347129331217   -3.76989086330961    0.70941532993102
C        15.72080975872323   -3.27266351112139    2.14281974900119
H        14.78416629640165   -3.28003469280222    2.69381856730007
H        16.42941530023196   -3.91846580416314    2.65622058617614
H        16.11453146141083   -2.25818650149091    2.14080767748083
C        16.82501020796767   -3.74678074598885   -0.06872076692566
H        17.23358357347380   -2.73868507329899   -0.09646995697908
H        17.54805634751691   -4.40178323151152    0.41203545862727
H        16.67369020250613   -4.08661129415152   -1.09137758192389
C        14.91714094655870   -5.18705159151601    0.72387949804307
H        14.75096758115919   -5.54324379680377   -0.29087990907863
H        15.60413256839724   -5.86618891000409    1.22361798544534
H        13.96799291384660   -5.19708800082420    1.25468417393222
C        13.62953294956822    0.15083760890661   -2.09113263136463
C        13.15064596373891    1.45615138778802   -2.11886474507455
H        12.20234968759106    1.69080103287675   -1.64162493714964
C        13.88651751156709    2.44434203712803   -2.74725954049205
H        13.51765042620415    3.45843968860304   -2.76658552950902
C        15.09648199806789    2.12956201197777   -3.34442878092627
H        15.67329209504560    2.90101624982047   -3.83277520566501
C        15.57372429135521    0.82771778473868   -3.31579988191604
H        16.51840160747518    0.58854266496241   -3.78174023109235
C        14.84274152043218   -0.16577430992538   -2.69110210084440
H        15.20566849673745   -1.18393369400803   -2.65888156597048
C        11.99277566137697   -2.11196296458035   -2.66417252782293
C        11.58630200590467   -1.48147318801766   -3.83640638551298
H        11.73259006200673   -0.41553899494937   -3.95068531978702
C        10.99578719350409   -2.21845135307155   -4.84571181099693
H        10.67813456371871   -1.72852022277439   -5.75427155363352
C        10.80240698493941   -3.58197414435736   -4.68734639098135
H        10.32738175492605   -4.15270232076218   -5.47088114584294
C        11.80357740910032   -3.48019788263773   -2.50910815320203
H        12.10920088812821   -3.95734227248614   -1.58876248556962
C        11.21064283120768   -4.21129250861550   -3.52263214600930
H        11.05450094236753   -5.27235757134055   -3.39910010833492
C         9.64516522667354   -0.36866365071354   -1.43786876723058
C         9.21302104677952    0.56432634176445   -2.37291920730321
C         8.34183033029190    0.26046258000446   -3.41054575020244
C         7.85851391289200   -1.03551114129864   -3.53771670316971
C         8.25538202092816   -2.00277052740127   -2.62237704275578
C         9.12888593638541   -1.64987014591731   -1.60491253171976
F         9.68533045849360    1.82841885818325   -2.28725607359901
F         7.97601427776456    1.19931775816087   -4.29993869851523
F         7.02671845156336   -1.35202393661520   -4.54136259662874
F         7.80698277894577   -3.26251109509588   -2.74332407608353
F         9.53167591777399   -2.61102073502626   -0.74313687991556

