55
CSD_code = WELDUN | q = 0 | S = 0 | Stoichiometry = C19H27F7IrP | MND = 8
Ir        4.94601950496686    0.82510737257974    3.94987259636863
P         6.75447458586654   -0.63296259273264    3.84074738328007
F         5.22652667744052    3.23924077942623    5.49384970356579
F         7.20008575995634    2.57454380987464    4.92824427923294
F         7.39860812311067    0.84305124315028    6.73485783422409
F         5.29487210198855    0.57940580454760    7.06836906219114
F         5.04420928334698    3.04205713516895    8.11853265521186
F         6.69951042967140    1.99453809638239    8.99041447295524
F         7.06313788652700    3.57709825985029    7.58718709649725
C         5.91094805633135    1.82548185702016    2.51106356121778
C         6.38780677803646    2.45648817058330    1.60324260740820
C         6.97825518215360    3.22020875396072    0.51633344265626
H         7.42223596457464    4.13448105789672    0.90846573194294
H         6.21585669882319    3.48454207288564   -0.21666014891055
H         7.75425632938331    2.63569610319000    0.02129027021285
C         5.96202953844710    2.08869598293845    5.28925134183386
C         6.21841058750508    1.50794897165816    6.71821921693468
C         6.25823311310536    2.55878823231741    7.85860526983206
C         2.90258528919952    0.98593463493793    5.04485409642232
C         2.92676869355048    1.69175190990778    3.78838856667568
C         3.05111764045925    0.71620272881256    2.74436657017782
C         3.25207156517463   -0.54808495304515    3.36141698296405
C         3.14151267580690   -0.37348603948529    4.79113192481679
C         2.50313665042458    1.59553623703392    6.34763381452696
H         1.41909277855102    1.72735585447123    6.36210583323374
H         2.95681842444896    2.57453506247616    6.48721758144878
H         2.78007732327667    0.96081658021804    7.18535599268160
C         2.49649335327718    3.11247509684984    3.60190485643442
H         1.40614484247718    3.17501526892144    3.59921063553659
H         2.86859611749085    3.50687919391182    2.65972652920011
H         2.87377157803167    3.73926776716096    4.40616665742195
C         2.84696429129156    0.97921929350288    1.28531806265551
H         1.77805950056868    1.01471945620932    1.06612816466358
H         3.29765901971457    0.20003395616608    0.67562365161243
H         3.28894473687388    1.93058308732232    0.99975959227147
C         3.19026966798593   -1.87331690311154    2.66539163394358
H         2.15330948140889   -2.21526273276019    2.63131440521212
H         3.77093638933291   -2.63183959833563    3.18885639473501
H         3.55242381118735   -1.80019206554045    1.64200668784520
C         3.05120761979833   -1.47868124153702    5.79469815917474
H         2.00420850870513   -1.69176663286826    6.02089633478298
H         3.54772996675185   -1.20685587602299    6.72394969109144
H         3.50402561987571   -2.39348333589773    5.41770126651844
C         6.87668021827180   -1.99995522753309    5.05789493598558
H         7.72955519726280   -2.63478099415468    4.82326793305740
H         5.96624511783019   -2.59362749814638    5.03291015269105
H         6.99825361792132   -1.58913719057494    6.05628118682712
C         8.45604301086438    0.03705744452828    3.83329287036038
H         9.15489351295628   -0.74693114104425    3.54540643925890
H         8.72322502653386    0.42346474608456    4.81111348059123
H         8.48906249745727    0.85558717137101    3.11766617600722
C         6.79162840385886   -1.55112373474888    2.25421131959216
H         7.67388771754344   -2.18709426554480    2.20500176722244
H         6.81701472373803   -0.82011952880349    1.44937172912139
H         5.90130880886540   -2.16270764142564    2.14817154658532

