74
CSD_code = WELDOJ | q = 0 | S = 0 | Stoichiometry = C35H32Cl2O2P2Pt | MND = 4
Pt        8.87043180024210    9.41884863792037   12.55051090784665
Cl        9.95658047851891    8.16025371959910   10.92828891719928
Cl        7.78949705974245   10.55968173735869   10.85363602412362
P         8.85262860313056    7.64902005635728   15.16254334393077
P         7.79877490089224   10.76566973319626   14.04409106340505
O         9.92797875134317    9.63857632894758   15.87779798160279
O        13.12395860075020   11.63858442099983   11.24941248574441
C        10.52499837676026    9.47141016468334   14.78860223352737
C        10.01534679042018    8.36989511991999   14.00065177933946
H        10.66370864538752    7.68023797500751   13.45996604537702
C         7.23478744181839    8.47702098853573   15.46564168970254
H         6.62704841190455    8.20827533037800   14.59196792488675
H         6.80671448965134    7.96566164660205   16.33703241847155
C         7.23180810938672    9.98886876105249   15.64014026940839
H         7.89289396323325   10.28093235413498   16.45308082496361
H         6.21403233338902   10.33141624849300   15.85388992428943
C        11.58078663952806   10.38143056898110   14.33903177788934
C        11.88965173187932   10.48059496591382   12.98248994574785
H        11.38696879248170    9.83594094144728   12.27466635645261
C        12.80827683422367   11.42605166065636   12.54642673257037
C        13.45278332820714   12.23604922505819   13.48831966603678
H        14.17047379150759   12.96014235747241   13.13554838476733
C        13.16130903041404   12.11463742722751   14.83183270136202
H        13.66485823759051   12.74878822373355   15.54608661572505
C        12.21625720729066   11.20283941210050   15.26644585129788
H        11.95801543475142   11.11369093356111   16.31002138220404
C         7.81284374609067    6.19707589249331   13.06030457603940
H         7.87022482081705    7.14424217227036   12.52318958388634
C         7.32702032573938    5.07171791134282   12.42294916968527
H         7.00346815549844    5.13558397943422   11.39537092936182
C         7.26188112011643    3.86589493088516   13.10345778744030
H         6.88393370125027    2.98486628496699   12.60664593692994
C         7.68021913458310    3.78999911144537   14.42161741799479
H         7.62446391430569    2.85217102113114   14.95449165018072
C         8.17313502564599    4.91390197590215   15.06155053692006
H         8.50118811719067    4.85152955934488   16.09001237548777
C         8.25230120876505    6.12228777283312   14.37929431261214
C         9.19338203699401    7.48500199336335   17.96182819925160
H         8.34276884287656    8.14155666578902   18.06542483839127
C         9.62997095182313    7.10228871183253   16.70207152241260
C        10.74835191947292    6.28559564597609   16.56709847999598
H        11.08012269398947    6.00070021886171   15.57672761777216
C        11.41768961051124    5.84041425159720   17.69148244631962
H        12.28458451097088    5.20509374190068   17.58746082678543
C        10.97433904816362    6.21300674094100   18.95077705851037
H        11.49658466985424    5.86636495829151   19.82991546635062
C         9.86689534489226    7.03476085550310   19.08361193258484
H         9.52966739550659    7.33003099238862   20.06624770954982
C         6.22360351500735   11.47699573906158   13.48048599096518
C         5.30330534616962   10.60963528305694   12.89897530895501
H         5.57075315922879    9.56989196044449   12.75656989969765
C         4.08049859763432   11.08247549432572   12.46630112680583
H         3.37310410839632   10.40948026428031   12.00482425365361
C         3.77036479675578   12.42620341075840   12.60901071335976
H         2.81842858137618   12.79953903428976   12.26141186267776
C         4.68505997484696   13.29218526144822   13.18275461125364
H         4.44694038294064   14.34097738448687   13.28420322496925
C         5.91195389645787   12.82232820076160   13.61992677715842
H         6.63070804219789   13.50116987176255   14.05729792264809
C         8.80855196778852   12.20867274884698   14.45882818175375
C         8.92782277098403   12.78294886257613   15.71728080681268
H         8.36606586136805   12.39621775898850   16.55438836386860
C         9.77537997006361   13.86236982322399   15.89847623680009
H         9.87234725627449   14.30620850531296   16.87880407718755
C        10.49801623097515   14.37401340304425   14.83385045408547
H        11.16088445144730   15.21272953235329   14.98658366700753
C        10.37072450195326   13.81223213814229   13.57341531211883
H        10.93150530273459   14.21129505492130   12.74179617008933
C         9.53242816008408   12.73081809554187   13.38772384405238
H         9.42023082920677   12.27589717983851   12.40975833762081
C        12.41989286967094   10.91028672506744   10.26102119303224
H        12.78278598085548   11.28595403409834    9.30610992392871
H        11.34111602176123   11.07663952149506   10.33023474462124
H        12.62092134429830    9.83803038403177   10.32961337253559

