61
CSD_code = WELFUR | q = 1 | S = 0 | Stoichiometry = C22H30CuN6S2(1+) | MND = 4
Cu        4.73830389290695    6.58621658793133    3.49661751519018
C         3.48354580679240    6.72957917008905    7.42257606733344
H         2.83349334392516    7.58647575686272    7.34241954911858
C         3.46395120103116    5.91482353490023    8.53345624460571
H         2.78804872485720    6.13376642055425    9.34545841015273
C         4.30351564581019    4.81034566046819    8.60787292841009
H         4.28032810461670    4.17429313794210    9.47908380310951
C         5.17667296584813    4.52526976347094    7.56632998946839
H         5.83611172125533    3.67383859855967    7.63192026293976
C         5.20905876571117    5.33216669890168    6.44901169190760
H         5.89874736388288    5.13301462171921    5.64078765636986
C         4.35377651976954    6.43914511182345    6.36306913005426
C         3.80873008475366    9.18964489470864    4.25472973109725
C         3.15207290362179   10.97870665903832    5.73463647166301
H         3.39144817932371   12.04360659031496    5.72767159707097
H         3.80134409604220   10.47456990642739    6.45209383143219
C         1.69051298562420   10.76810090268903    6.11893872289129
H         1.02772099767725   11.27928564505049    5.42542892884284
H         1.51441691440303   11.15931362330694    7.11642854246793
H         1.45070569125428    9.70827003154125    6.10972156703403
C         3.25143826458507   11.33323150006048    3.27609417195446
H         2.49340123722774   12.07271272182562    3.53963631220414
H         2.89134699722154   10.74272643336184    2.42873970451054
C         4.55584644044310   12.02826448743478    2.89423019726852
H         4.94186659519699   12.60864042530731    3.72864913926601
H         4.37991634044788   12.69626155841755    2.05684576821597
H         5.30173439686354   11.29404573187088    2.60070486418108
C         6.35522274466971    6.50244850017083   -0.28976008169101
H         5.79369405624564    5.66559084328783   -0.67388430094442
C         7.06884730079763    7.33230217865925   -1.12666880949990
H         7.07410636033364    7.14437600307220   -2.18928288077385
C         7.76883543907485    8.41546508813235   -0.61005057242822
H         8.32026936198249    9.06510752843700   -1.27195815981332
C         7.76245208687833    8.66419526522952    0.75601140383920
H         8.31712731533588    9.49884702836895    1.15587179147951
C         7.05489643356136    7.84144618101419    1.60623683171781
H         7.06083188389975    8.00950625941974    2.67420083615207
C         6.33547662632379    6.75594660925469    1.08797261863029
C         4.53851624225641    3.99003912279666    2.29299781943287
C         5.07168069109562    2.21744854019777    0.75057678153159
H         5.08933040524273    3.00403677134166   -0.00601144680363
H         4.50037133470204    1.36907939147655    0.37048501230976
C         6.49891665967597    1.78913687739479    1.07931668344274
H         7.07587638867702    2.64200471246485    1.42853390550820
H         6.97477912996121    1.38840380259258    0.18941358940876
H         6.50466526621615    1.02207467113781    1.85002113670459
C         3.55283952366847    1.80632396842883    2.67567710384878
H         3.58530914217924    2.08672718285818    3.73140176791403
H         3.97270548713284    0.80484489770461    2.56537318013827
C         2.10826138477001    1.83322504898291    2.18266905549306
H         1.68428087523376    2.82530160896998    2.31422224801686
H         1.51562793740584    1.12565309413098    2.75422837107110
H         2.05347068210961    1.56519839692609    1.13050284942213
N         4.42346493923438    7.24552605174310    5.23759332002411
N         3.85111809825635    8.40562497071386    5.32844916841079
N         3.42786529236082   10.45317884823581    4.40942109301293
N         5.64591611629332    5.93828782665670    1.97028447065325
N         5.27705552684724    4.78285809798668    1.51862423656674
N         4.38352642932691    2.72230427586411    1.92414094012429
S         4.15167047522980    8.55889872142762    2.68380443724059
S         3.73093618189331    4.61997546033269    3.68093280109878

