66
CSD_code = WELGOK | q = 0 | S = 0 | Stoichiometry = C25H29BN7O2PW | MND = 7
W         0.56718085865637    3.99100156270576    3.41245979407233
P         1.17978774886052    1.62843333636511    2.93192050251551
O         0.48963951364837    7.62036108796980    1.84880756286270
O         3.37793268810568    4.52468186569589    4.12619656153052
N        -1.50973011729582    3.46648558429641    3.02773715504522
N        -2.44089511187091    3.75470225202524    3.93819964779928
N         0.16098073418742    3.30990849944952    5.41037089056413
N        -1.03264816959332    3.52236063047978    5.97038322071016
N        -0.18309095093265    5.76700206431279    4.39180398200019
N        -1.36611051943930    5.73782430916680    5.02063302974895
N         2.24072361670404    4.36579608081980    3.81794074198335
C         1.06179410330231    6.54116707458941    1.69555361368911
C         2.54830997072693    6.45012509058291    1.63565147404949
C         3.13167089527583    5.24586096656434    1.11079037022455
C         2.38939548166544    4.15426553558216    0.84691828563847
C         0.97726112766090    4.09470093808272    1.15961045661705
C         0.32924144049880    5.29548730784802    1.57558105575967
C         3.24864201948331    7.55868271531170    1.98792184341455
C         4.68633561045361    7.70140225896330    2.08247438123820
C         5.50154198496901    6.68330063441163    2.58425424741585
C         6.87090254487578    6.85564663185261    2.65527765026678
H         7.48976831877133    6.06309199559399    3.05146036553756
C         7.45345457489613    8.03815594057641    2.22868955933866
H         8.52519105211694    8.16584789358784    2.27904984332778
C         6.65250889249302    9.06504090204227    1.75371483673222
H         7.10036108380812    9.99555049967513    1.43459672494587
C         5.28274036659330    8.90463841678459    1.69382096689083
C        -3.65039349450944    3.37906638963065    3.49873530201505
C        -3.49818831652577    2.82045369526297    2.24736684791172
C        -2.12965002244051    2.90113510534217    1.99862646285374
C        -1.02854510759504    3.07247972954120    7.23379392149073
C         0.21793228126036    2.54559001671163    7.50157877444594
C         0.93411923079064    2.72679648207181    6.31976401270079
C        -1.58650436764761    6.92062349440067    5.62070808057695
C        -0.50548013437830    7.73613753665716    5.37579501912836
C         0.35770302738643    6.95631396600847    4.60505514290817
C         0.98769980846379    0.76199344963170    1.31620683986342
C         2.94449404143901    1.26510445169286    3.25348122241280
C         0.35207363141923    0.36607391051776    3.99050817570007
B        -2.08549856546665    4.41112281921356    5.27141121882045
H        -3.04499494298654    4.54798140660013    5.94798492798817
H         4.18646280507002    5.26342587006248    0.87779072480413
H         2.84909489849738    3.29087337583920    0.37919369279163
H         0.40020301826991    3.40634890820037    0.53973516367738
H        -0.72728640991791    5.43727123623604    1.32758193095822
H         2.66258520135091    8.44454405230205    2.20868472803433
H         5.04708115500438    5.78076511367650    2.96355767070955
H         4.65879662655963    9.70509448086506    1.32213824270763
H        -4.52967494116330    3.52979305604973    4.09078215306839
H        -4.25766059539784    2.41894098783180    1.60891687887039
H        -1.59512767985395    2.58196045857373    1.12342568322418
H        -1.89587221291236    3.15497810888452    7.85642410710439
H         0.56059051326677    2.10382857368270    8.41421556361602
H         1.95856030581334    2.48400110435243    6.10343045600275
H        -2.48563064107051    7.10095215327614    6.17456796922509
H        -0.35709273438571    8.74474889746459    5.70009396843831
H         1.32650351981302    7.20965135103689    4.22086135116523
H         1.54696328273896    1.28338339296582    0.54358125326887
H        -0.06257082087817    0.72478628164761    1.03374285163993
H         1.36513754697040   -0.25661247911381    1.40416594465973
H         3.19929736523900    1.57178985033355    4.26534963432609
H         3.15986106671773    0.20474908485583    3.12285632055213
H         3.54611175900223    1.85602784214036    2.56475910935199
H        -0.72302240968195    0.40843657690722    3.81605599537907
H         0.71371127022471   -0.63322211327271    3.75021905203183
H         0.54202128287477    0.57378930662017    5.04123484165747

