99
CSD_code = WELGAX | q = 0 | S = 0 | Stoichiometry = C36H44N10NiO8 | MND = 4
Ni        2.66870027143230    7.19809101542603    0.00000275183358
N         3.08170949736808    6.09332893222685   -1.43502941460227
H         3.78503913133268    6.39639789757208   -2.10741320660201
C         2.59386642001535    4.91553806676704   -1.74327559340141
N         1.74665414070550    4.18943183960324   -1.01375707427735
C         1.32550426351229    4.66241212769473    0.15946311795560
N         1.65402488606535    5.80909039379253    0.70460788160948
H         1.27974951671972    5.89770774773195    1.64832965698658
N         2.98302668346236    4.27997512159009   -2.90341688355214
H         2.77443946191085    3.29357092412294   -2.92139600258574
C         3.79680166500023    4.79122307573233   -3.91328969391572
C         4.75014120426038    3.95858297569305   -4.49374529324895
H         4.82518258064446    2.93979273152564   -4.14896782869742
C         5.58338012041168    4.45584642419516   -5.48907140064727
C         5.46662827719303    5.78051097321818   -5.89373453572254
H         6.12546424049481    6.17007462441424   -6.64958924989068
C         4.49746912787031    6.60540541522668   -5.33486652943272
C         3.65018230389415    6.10809622443149   -4.34930452249660
H         2.84969461227227    6.70867922606014   -3.94907611701494
O         6.55357680787873    3.73270622023999   -6.11378059902782
C         6.71796991909758    2.38095050774148   -5.76365756521684
H         7.52855496616465    2.01110164799591   -6.38963134091269
H         6.99578189371306    2.26721056115419   -4.71040730137796
H         5.81265588557153    1.79910431025096   -5.96541027185645
O         4.45017859436666    7.87368592764292   -5.81878784957464
C         3.52168840253121    8.77675175787829   -5.27211884915928
H         3.70312140906663    9.72330958026946   -5.77810386804157
H         2.49053810006425    8.45718143687169   -5.45595018640752
H         3.67398122767760    8.91592343581042   -4.19684083324258
N         0.49710750979505    3.78282254793030    0.82406469711874
H         0.52113619461291    2.84316993757333    0.45865800311478
C        -0.15712402125985    3.98986565897395    2.03753678718522
C        -0.77033689144080    5.21066146777549    2.31935401309676
H        -0.79918311754246    5.97336228635353    1.55840331136523
C        -1.38848917055530    5.40227152119649    3.55140957365033
C        -1.41102062897455    4.36962248316417    4.48155432220828
H        -1.88297668006828    4.52332003482059    5.43591054433176
C        -0.83848551756010    3.13885669468915    4.18231224972256
C        -0.20564826035005    2.94744122183151    2.95962546720157
H         0.25950478327713    2.00904992577318    2.70367081077587
O        -2.00107730440483    6.55329363830649    3.93189377215859
C        -1.98891695948388    7.65300239348978    3.05618104053271
H        -2.49385610840565    8.45605649557629    3.59007828531725
H        -2.52866321449249    7.43673025506572    2.12819978067049
H        -0.96905700288702    7.97309944608113    2.81896315861728
O        -0.93535896423801    2.19192396113630    5.15609569316425
C        -0.39428063341526    0.91704958423918    4.91320865429798
H        -0.60084402332595    0.33383516065135    5.80921051550630
H         0.68837568385812    0.96117473915919    4.75395598388288
H        -0.86874647827876    0.43488532451263    4.05224117863249
N         2.25570495887690    8.30284975191866    1.43504440559398
H         1.55237418534459    7.99978264714639    2.10742795573160
C         2.74352540438954    9.48065411944296    1.74327187724363
N         3.59073909222360   10.20675625047415    1.01375074812744
C         4.01188928303539    9.73377256402990   -0.15946720876994
N         3.68334493618299    8.58710317806908   -0.70461923535142
H         4.05762034637889    8.49848324153263   -1.64834044127424
N         2.35433869619861   10.11623927083596    2.90339322526636
H         2.56291013584204   11.10264767056279    2.92134767865171
C         1.54054664104703    9.60500770743620    3.91326043306679
C         0.58717869497513   10.43764735927377    4.49366430515088
H         0.51213869544926   11.45642991795454    4.14886303823931
C        -0.24608111769293    9.94039608974010    5.48897778595575
C        -0.12930693933669    8.61575207639076    5.89369706634560
H        -0.78815407484395    8.22619972629157    6.64954703482064
C         0.83989052095267    7.79086474963106    5.33489433406673
C         1.68718298382988    8.28815302349110    4.34932497742350
H         2.48768302919933    7.68756643920334    3.94912200156943
O        -1.21629399059177   10.66354429989657    6.11365376446673
C        -1.38072259808320   12.01527925102928    5.76345964315454
H        -2.19133916647962   12.38513149246720    6.38938658271608
H        -1.65851292729385   12.12895435807218    4.71019849332322
H        -0.47543842371018   12.59717281928878    5.96520404180623
O         0.88717526267811    6.52259403264581    5.81883874902129
C         1.81570122315001    5.61952895962691    5.27222262995421
H         1.63425052310726    4.67297835854967    5.77820855411639
H         2.84683995969731    5.93910440893136    5.45611044043255
H         1.66347126684965    5.48033604797874    4.19693803707923
N         4.84031923424930   10.61334344166527   -0.82405421093909
H         4.81631145871672   11.55299520957031   -0.45864350530704
C         5.49457315965803   10.40628635427001   -2.03751163400579
C         6.10774460671680    9.18546888758397   -2.31932693769741
H         6.13654339701565    8.42275882628582   -1.55838358989884
C         6.72591453172981    8.99384628744309   -3.55137099293714
C         6.74849960117845   10.02650107877540   -4.48150827230315
H         7.22046950810037    9.87279412704208   -5.43585654117021
C         6.17600380081734   11.25728616276715   -4.18226706582262
C         5.54315621641571   11.44871704176220   -2.95958944280421
H         5.07803940061858   12.38712545687508   -2.70363403349508
O         7.33846041741165    7.84280092633311   -3.93185407783815
C         7.32623288646213    6.74308264902522   -3.05615528517986
H         7.83114650826834    5.94001090262830   -3.59005102972119
H         7.86596958631434    6.95932209315906   -2.12816188182162
H         6.30635437777034    6.42303114393861   -2.81895951135551
O         6.27294551679025   12.20422883473467   -5.15603379579795
C         5.73194078849001   13.47913174601342   -4.91313958979917
H         5.93855613211878   14.06234789626892   -5.80912907186351
H         4.64928115514060   13.43506503482156   -4.75390582699710
H         6.20641630908502   13.96125018594183   -4.05215386120562

