59
CSD_code = WELJIG | q = 1 | S = 0 | Stoichiometry = C18H25CoF7O6P2(1+) | MND = 8
Co        7.97857971702111    3.37010090151875   10.11046665483920
P         8.57837119183803    1.25803400939811   10.53282796015655
P         7.35151179581512    2.74268304572679    8.09984793118720
F         5.89128346281671    1.73918885062666   10.78581083273131
F         6.41939494877362    3.15935941508853   12.30055752003873
F         5.17919107825402    4.26489843809433    9.22459837897218
F         5.14673063233580    5.09823935596024   11.21258673141877
F         2.73244903059775    4.18665894567966   10.63106423563102
F         3.59046887877382    2.72724951998428   11.95654037422916
F         3.48533071365390    2.33813029904253    9.83867896818988
O        10.12878113852010    1.17821711996139   10.16894564562206
O         7.99543610164372    0.04899068173039    9.68980071654813
O         8.43990277726798    0.60421469296073   11.99539597059472
O         6.09774624564603    1.74965319129524    8.08353799299693
O         7.18909518283779    3.62782722512734    6.77198111672087
O         8.66305750389996    1.93552814949836    7.69591478362969
C         9.33381939293170    4.29744036520738   11.35219256061981
C         8.22348281879229    5.14893036606721   11.15188742901178
C         8.09026623701526    5.38800810139607    9.76615713035625
C         9.28549959728914    4.89445697538459    9.11017107173184
C         9.77306384107671    5.03735144718873    7.80894660508427
C        11.00681730611367    4.49958522951119    7.51236172562568
C        11.77004619520457    3.84088830068024    8.48409585758484
C        11.31716734532490    3.69512549120949    9.77614799386532
C        10.05679428481582    4.20683623956866   10.10023146118215
C         6.28453765905219    3.03723385767597   10.94843330210241
C         5.09071418854534    3.93569615671653   10.54165712730997
C         3.69295535210499    3.28011568222361   10.75775527043552
C        10.82537239343214   -0.07162515498795   10.15935341646509
C         6.88779289438412   -0.78916836456531   10.02871751763007
C         8.88947320970608    1.21814029803317   13.19679275512600
C         5.71969502882245    0.96869243698202    6.94071194165489
C         6.07150357194122    4.45559412478944    6.46414203249977
C         9.16218536093109    1.65518056680347    6.38323259204178
H         9.73559124793645    4.01909083997632   12.31423886715987
H         7.59083085156470    5.55352152053071   11.92727005823469
H         7.38291398645391    6.07203386485575    9.32183676507969
H         9.21237616782770    5.58715958107808    7.06864120920528
H        11.41217486524650    4.61488704162728    6.51872421762270
H        12.74624387446899    3.46722622791747    8.21604900063467
H        11.92660278664849    3.22385220470637   10.53105977679567
H        10.54302924944845   -0.68561316148543   11.01549485276242
H        10.60770174728464   -0.61233872975965    9.23963512497287
H        11.88621314048832    0.16861318431943   10.20693962541084
H         5.96972923242682   -0.38221008724983    9.60855924485783
H         7.10471064882949   -1.76279350295621    9.59035675172884
H         6.78670072008442   -0.88314268974551   11.10747309497845
H         8.81419062028443    0.45249719104125   13.96825670827414
H         9.92748114790122    1.54179865920983   13.10499712294784
H         8.25260567780299    2.06089991627588   13.46421127526991
H         4.65417635131198    0.76973722561692    7.04842949919912
H         5.90467312293952    1.50525355823573    6.00907114238529
H         6.27364484507677    0.02956896562538    6.93983750513468
H         6.14455342708186    5.40754115686922    6.98787364765059
H         6.11245061401965    4.62719666758153    5.38850985488005
H         5.13193988357530    3.97268025131350    6.72854642094997
H         8.77857159206864    0.69662807518623    6.03322984584792
H         8.89073776103523    2.44268458301675    5.68303282069079
H        10.24603936102751    1.60437149460172    6.47778196342200

