59
CSD_code = WELJUV | q = 0 | S = 0 | Stoichiometry = C16H34Cl2N6Zn | MND = 4
N         1.59798780248177   -1.89972221930034    5.34888902542657
C         0.67835806445980   -2.20875913013919    4.27671690011387
H         0.75011602155715   -3.27405066462971    4.04052159962249
H         0.94962825902602   -1.65089485168635    3.38345323093503
H        -0.35649196376595   -1.98711409545819    4.55385892958879
Cl        2.59759885174087   -0.86383001273717    1.64979569611154
C         2.55680733480580   -0.93360984381435    5.22827428592398
Zn        3.42059663065682    0.70838714428740    3.08156159087790
Cl        5.63797051479747    0.51878640114309    3.06555191354808
N         2.34709319029228    0.25496079647995    4.72608833122424
N         3.77026072010632   -1.21890523330907    5.76812582267514
C         1.60795519852411   -2.85275624153695    6.43195262620701
H         2.26142650844430   -2.50186065498041    7.22636930542036
H         1.93376231366594   -3.84748019785474    6.11086272757049
H         0.59104677056724   -2.94061624617194    6.82496105049742
N         2.51472732543741    2.34694000932486    2.33656445782863
C         4.45352683667761   -2.45694292787559    5.46156098244864
H         4.75598570176641   -2.97072318871605    6.37798835506959
H         5.34723352088574   -2.23746053413955    4.87090942862929
H         3.81265826592116   -3.10662399576876    4.87237651944617
C         4.93821169650203    3.63956002463818    1.91676570045165
H         4.29647909482639    4.04264747756565    2.69588675663273
H         5.54079860195404    4.44368755617958    1.48806291207462
H         5.60590566696194    2.89576342369865    2.35619411226759
C         4.86383854687332    2.56806544092470   -0.26285524366184
H         4.22843858581793    1.94243390875336   -0.88313708358600
H         5.68840867417947    1.95194933249508    0.10620197018079
H         5.27633121559000    3.38348634371458   -0.86293779769604
C         2.13702466419193    3.66470773616304   -1.01580579668369
H         2.82229493271209    4.45388948141593   -0.71770436618675
H         1.16251270577348    4.10901223491138   -1.23765844424740
H         2.50932382921248    3.19120876425600   -1.93010419065142
C         0.99586950922664    1.68619099515620   -0.17502079935387
H         1.15439681814669    0.86027980378618    0.51449819575729
H         1.12409254202504    1.30302320505478   -1.19113419836243
H        -0.02661084371267    2.06245264944929   -0.07604758252887
C         2.84765080802914    2.67041126316587    1.11448559524856
C         1.08294905807600    2.04794673827777    5.74341881008098
H         0.06156789826844    2.37710770890637    5.95128815958095
H         1.52973703127034    1.71590255086496    6.68320047300509
C         1.88036875039331    3.20276271074179    5.15467937465907
H         2.89362921010244    2.86684452200707    4.93089926682571
H         1.93973643940719    4.02184226781114    5.87501161715160
C         1.21212194545073    3.68263373632818    3.87439141175812
H         1.75241351285110    4.53619969542357    3.45895048192297
H         0.18980445529434    4.00198491901256    4.09268314824337
C         1.16180566510966    2.56380281857007    2.82056088460277
H         0.53345602752275    2.92065668102043    1.99342003432915
C         0.49843206385906    1.31197972562533    3.40550839526457
H        -0.56629627201221    1.53016239973357    3.52197523035176
H         0.59640226680433    0.49200040310305    2.69534355102500
C         1.02562262679231    0.85780751935365    4.77122680034638
H         0.31032090113742    0.13285958366569    5.18252294253172
N         4.11636164791450    3.08597229869266    0.86265655290557
C         4.63840342302030   -0.16321180935281    6.24213005820724
H         5.14813082948702   -0.52238261280396    7.13913749015233
H         4.03847591749471    0.70851756304665    6.49003275933120
H         5.38859201740661    0.12105628019350    5.50146813829930
N         1.97404966797925    2.72346034532838    0.06532190059258

