60
CSD_code = WELJUT | q = 0 | S = 0 | Stoichiometry = C24H32ClIrN2 | MND = 8
Ir        4.66448085262789   12.95414306934194    3.36798262669543
C         4.47042340297731   14.91663954758997    3.05642067630172
Cl        6.14460252350381   13.57235142964695    5.10844895833964
N         5.25947288009599   15.85340671098059    2.49283332878916
N         3.40493844520768   15.58123983592399    3.54903893819179
C         6.55850229426815   15.62044716349144    1.90553159509742
H         6.50277464890054   15.77133120534722    0.82161248015189
H         6.81578454086643   14.57909611218748    2.11455079014137
C         4.68318925210570   17.08863302402068    2.62882083694817
H         5.14977518802785   17.97750392946519    2.25730396401179
C         3.51405819343872   16.91551623609606    3.29065997180338
H         2.77986923588216   17.63415224189993    3.58905487516629
C         2.36065067777646   14.82461322684214    4.22652747005550
C         1.91114201520003   15.57535064771458    5.48026208292746
H         2.77413772252773   15.81582528770285    6.09579726185621
H         1.23738270318311   14.94732215947608    6.05615468205775
H         1.38865145652679   16.49514566600137    5.22585154378613
C         1.19241025374567   14.65449217847342    3.25116046966917
H         0.81317993373761   15.62316842359369    2.93129049913688
H         0.38565521929048   14.10697090880646    3.72956836170765
H         1.52526407301529   14.10159445361541    2.37735685597657
C         3.00370495207932   13.46876419651554    4.57914467997233
H         2.24241207383100   12.69009598524423    4.50987064348146
H         3.33715767165113   13.50338547434408    5.62053954631252
C         7.58888279647989   16.53821992997018    2.51203938262263
C         8.20091364711419   17.52634647601113    1.75440230391528
H         7.95666002464930   17.63157348926407    0.70580618864620
C         9.12921287952852   18.37504947165219    2.33331193629044
H         9.60478759072061   19.13940126172882    1.73603214126560
C         9.44370029751709   18.24419109210455    3.67470439107025
H        10.16648937020270   18.90797508524277    4.12606951853708
C         8.83250565877133   17.25972190037497    4.43440876565506
H         9.07813140866908   17.15282276872542    5.48014827773139
C         7.90855040030895   16.40686865495063    3.85837599863155
H         7.43448136193439   15.63223749769711    4.44456188377111
C         5.22764377601524   12.06215718447235    1.27357305682834
C         3.89960059857087   11.70013634625656    1.71456237595115
C         4.04138459587160   10.84316259667033    2.86374022498425
C         5.40471562150769   10.82805517583389    3.21405570061317
C         6.14196536017199   11.57094674901105    2.21503932612270
C         5.52342966955876   12.73645170143576   -0.02975678316043
H         4.87124396480361   13.59422987466482   -0.18976086628349
H         5.35855538994458   12.03499318590706   -0.85028581416968
H         6.55601199954770   13.07455437077619   -0.07691561417177
C         2.67636980205082   11.80230902988883    0.85561293170573
H         2.65723738883385   10.98149743634892    0.13488875319906
H         2.66542750868483   12.73754734726825    0.29857071169434
H         1.76889743731442   11.74496180139372    1.45278758422979
C         2.95405474835607   10.01413912377323    3.47375887789158
H         2.94141858919150    9.02496156184600    3.01095559670103
H         1.97796111387551   10.46927929596424    3.32027625002424
H         3.10708076653526    9.88626678585761    4.54341557621000
C         6.05693558280436   10.00439877548915    4.27847598720887
H         5.32296070462651    9.62444346689684    4.98532038626701
H         6.78772427094671   10.59601793546936    4.82850958546450
H         6.57744765959408    9.15533386113720    3.82997587681486
C         7.63558745585239   11.63385066694831    2.17393232283212
H         7.98738561357598   12.28563393090563    1.37648167864050
H         8.04843167516506   10.63682339902501    2.00899094045000
H         8.02919306023724   12.00495165471577    3.12025140724109

