59
CSD_code = WELJAB | q = 0 | S = 0 | Stoichiometry = C16H34Cl2N6Zn | MND = 4
Zn        7.31737395598674    1.71052010213362    5.45855719491400
Cl        8.90711761651555    0.99108464345435    4.05235554553974
N         7.66297852007637    2.24331770085837    7.38958409581301
C         6.95853991959886    1.26933949061964    8.19823692008345
H         5.87576826485143    1.44315731574427    8.19722980524974
Cl        5.96204437643776    3.37751101608248    4.81652911753496
N         6.77270562796564    4.14802083085492    8.47878228292196
C         7.47784268304282    1.27194084269026    9.63937008602387
H         8.55471287656849    1.08744865241242    9.62078819280187
H         7.31649882151225    2.25431549060733   10.08521314270645
N         8.67481491421632    4.28568938982760    7.15943667383595
C         6.78216230941872    0.19829143238818   10.46849354451404
H         7.17600862253260    0.20577867194885   11.48703730195813
H         5.71284307752564    0.41612614825393   10.52071562634647
C         6.98650827341362   -1.17487029087180    9.83858618492221
H         6.46048787880134   -1.93514833266818   10.41980014898275
H         8.05064961839800   -1.42204903780921    9.84825197294264
N         6.67299230250222   -0.06728160858778    6.21590878803784
C         6.47811558998056   -1.18255387874945    8.40126167762625
H         5.40516404715382   -0.97613301567405    8.38573500824874
H         6.63345854711619   -2.16464104343863    7.95325944215249
N         5.80355410001897   -1.11290654156984    4.37156489775844
C         7.19196832974463   -0.11389016330855    7.56784476245398
H         8.27342605030715   -0.29571683866768    7.58262173346414
N         7.45419531858190   -2.20945132088649    5.57457630946430
C         6.68834209885646   -1.08965209641823    5.40972018321462
C         8.85711234541489   -2.12094587650108    5.91051726241273
H         9.04724661927768   -2.38820501755478    6.95537343666425
H         9.21970226082297   -1.11480905048050    5.70754655431434
H         9.41433273470069   -2.80984710299386    5.27226025457359
C         6.98660088843891   -3.51895004542111    5.18851610009098
H         7.19112951225725   -4.21849905122148    6.00472734648451
H         7.48516636363526   -3.89395040469330    4.28893113163439
H         5.91424850591076   -3.48767885891695    5.01457021787145
C         4.70689902068227   -0.17093373340795    4.35900108660765
H         4.33179255384669   -0.04393600179616    5.37171701031147
H         3.91729969631260   -0.57659957966615    3.72541926300591
H         5.00027286056334    0.80965554836962    3.97041666889632
C         6.26110010959587   -1.48680916055349    3.04755821496245
H         7.25978666610118   -1.90918351680131    3.09462712420380
H         6.30981918459514   -0.59855525586334    2.41179394748595
H         5.57451367563816   -2.20736106859390    2.59731536902426
C         5.35141641545952    3.90699816267751    8.37774544242418
H         4.97811350531053    3.30131205770743    9.21037171249782
H         5.12850246655093    3.42106406500839    7.42961534023958
H         4.83039803216435    4.86676123415053    8.38969143941794
C         7.66164391658065    3.51926021898626    7.65174214830214
C         9.84873764998653    3.64179727300633    6.61463714425745
H        10.67665228473169    4.35040673543686    6.65721261144974
H         9.70894613657704    3.32610387673439    5.57558828171686
H        10.08794362954732    2.76583427828807    7.21303232985665
C         8.38032308245381    5.57026451284118    6.55504248201550
H         7.33648519092270    5.82937435136131    6.70173926341623
H         8.55497049868801    5.51470989568633    5.47773598661147
H         9.01971669343338    6.34885116480006    6.97788841435641
C         7.15693819994540    5.26665097922781    9.30547290943343
H         6.75771263276022    5.11004127801672   10.31209249804026
H         6.76778760774300    6.21916016224272    8.93159403751216
H         8.24071531819038    5.32297037067246    9.36394633039044

