58
CSD_code = WELJUS | q = 0 | S = 0 | Stoichiometry = C22H24CoF7O2P2 | MND = 8
Co        0.02743897407307    1.38892849792442   11.18626857528479
P         1.25792539201933    2.51023667995728    9.73744470193334
P        -1.51931026275600    2.99852444838514   11.09851215314662
F        -1.45748017201540    1.24403779366484    8.79976010825747
F        -1.85696634518518   -0.27767222000250   10.24494697680263
F         1.34017688351238   -0.19899200262586    8.87857408291204
F         0.02642349549802   -1.76095279591290    9.55741357779498
F         0.20813393145603   -1.87121333886209    6.94991891801236
F        -0.18545016830857    0.21562368935162    6.66690788053256
F        -1.73516637306791   -1.08419509409804    7.40662522805041
O         0.78156861909517    2.72518466154167    8.36533134032185
O         1.19768765045219    3.93325093423436   10.59043602129871
C         1.18648108542649   -0.11905212712313   11.96413753035081
C         1.65629649327165    1.12516964660495   12.46095700561915
C         0.61622507467512    1.75202031031114   13.15990144010904
C        -0.45227818881884    0.78997525347256   13.32138481276153
C        -1.62290590837198    0.79443422524879   14.08701726041352
C        -2.40146181402756   -0.34113980942784   14.11046240381793
C        -2.03990534746519   -1.48803035299519   13.39339433959721
C        -0.89063138749905   -1.52729186689402   12.63900155850087
C        -0.08098102824300   -0.38668403228546   12.59346308739079
C        -0.81059275430128    0.45590538469967    9.71724302036633
C         0.03593136812069   -0.56561387348247    8.92266741880277
C        -0.43262464763986   -0.81353263432768    7.46443168062163
C        -1.51289266298300    4.22501863869996   12.46099113121180
C        -1.75513787106712    4.10976236587724    9.66891857372603
C        -3.19785868523781    2.28377134185472   11.27093803289741
C         1.65255220367024    5.08865412569595    9.91062586733912
C         3.08218187588601    2.23030182378286    9.67554880567408
C         3.93450917571091    2.74866897045058   10.63967755430624
C         5.30463066166182    2.62118960407575   10.48957478363781
C         5.82443035729712    1.97911768485849    9.37775252706117
C         4.97255426976794    1.48872434146075    8.40190515175121
C         3.60229230643503    1.62027019290186    8.54619214973763
H         1.79962745316772   -0.86362198120813   11.47878069939557
H         2.66103485749232    1.49267848034653   12.34658942641208
H         0.70642697838255    2.66911201924376   13.72108817123297
H        -1.89635854965816    1.66326296134217   14.67044497201595
H        -3.30302577234780   -0.35722593233715   14.70563185922292
H        -2.67234776660227   -2.36073445633386   13.45006046623392
H        -0.60662985968296   -2.41622459844007   12.09720377438326
H        -1.67265470926331    3.72755739446598   13.41345308208850
H        -0.55365020853731    4.73590253193913   12.47497240178042
H        -2.31008992980007    4.94810692647869   12.29145246722379
H        -1.09152918154269    4.96374196561315    9.76566278588662
H        -1.52499568510345    3.59258498305951    8.74266813227434
H        -2.79207569965796    4.44444344260869    9.66051778030185
H        -3.91544773541230    3.07951020288960   11.46790954997126
H        -3.46227086088216    1.77372655200896   10.34763847921768
H        -3.21679419425459    1.56140698316186   12.08507817409190
H         1.21049228414866    5.95659485515687   10.40243525182858
H         2.74248365694807    5.16376966648625    9.95563747347826
H         1.34591734983531    5.05757557589260    8.86185399051553
H         3.53135271284957    3.27210413533214   11.49523119728308
H         5.96732524074379    3.02818105260463   11.24003928865158
H         6.89374300642610    1.87461000415787    9.26693727592872
H         5.37613107455310    1.00802491591402    7.52329698252120
H         2.92683933716040    1.27071185261236    7.78289061804308

