52
CSD_code = WELJOM | q = 0 | S = 0 | Stoichiometry = C17H22CoF7O3P2 | MND = 8
Co        3.04905730801965    2.42677659162147    2.76466797498316
P         3.66679919209802    3.09661830886815    4.73649975309128
P         2.22355333197956    4.46493701698086    2.37072112379456
F         0.56924138665298    1.46199785013430    2.45848964450109
F         0.62835425566390    2.83007825751247    4.10436321681991
F         1.39945923413119   -0.51836159241350    3.78114614285265
F         2.46908122670246    0.61103614311503    5.26589316616239
F         0.07946563532970   -0.61731979335065    6.03739558269115
F        -1.01139356988615    0.70901047923551    4.75090496638442
F         0.16465229439865    1.49790221056574    6.37225649585973
O         2.74985846417029    3.52512298544610    5.80024460430169
O         4.87973597326410    2.20458998207175    5.36204173683575
O         4.53210368603236    4.36355042028672    4.13278190686235
C         4.61128919984416    2.59059029274076    1.39590254111563
C         4.98980285790465    1.74523721579767    2.44435502392378
C         4.06096598416845    0.67174154043133    2.51885606327264
C         3.24332078981202    0.71818572225537    1.33331461348241
C         2.31417750113106   -0.17493024560612    0.78517300581955
C         1.71647306225664    0.14989836437036   -0.40970274557146
C         2.02405823896810    1.34048423297336   -1.08021642133280
C         2.93961140931454    2.23312560947329   -0.57162734270128
C         3.56015901655714    1.93623747445999    0.64755332900908
C         1.37564704705130    1.84052685863773    3.51525938399398
C         1.36333987689668    0.63689240484326    4.48496358519252
C         0.12880450885806    0.57162994645652    5.42456369935535
C         4.77036162308443    1.65402667610406    6.65904639732437
C         5.15593804741438    5.19644687463916    5.09468201174504
C         3.24446192295566    5.59582361525537    1.35138741822416
C         1.71410826913517    5.60725500822459    3.69841347519837
C         0.69860117393542    4.36805239494755    1.35834188451597
H         5.17346565745222    3.44417295645164    1.05168218241749
H         5.83637037600945    1.88489695257073    3.09550482973923
H         4.15416582823038   -0.18647375526107    3.16740099136329
H         2.08394204288085   -1.09906946240526    1.29237550884781
H         1.00428653607378   -0.52938712861499   -0.85254886916319
H         1.54181643562296    1.54976710009840   -2.02394350884867
H         3.19484508761361    3.13423930598912   -1.11272764697355
H         3.89629391857789    2.06103915199432    7.16879297178127
H         4.67842230792095    0.56999020336539    6.58977410137528
H         5.67611572667931    1.91311623399302    7.21050944631818
H         6.08839548487376    4.74805350347600    5.44456524143578
H         5.36975775058532    6.15079700694033    4.61135743230872
H         4.49236419033137    5.35189644734055    5.94942003137054
H         4.20329450826874    5.74838665254772    1.83965550286679
H         3.40210206449372    5.17033425126708    0.36390392774207
H         2.72758173389656    6.55020048784469    1.25536982354035
H         2.59405686387931    6.11047800638933    4.08908689715106
H         1.02121404996017    6.33689429353234    3.27869351709447
H         1.23886383549169    5.06357370516800    4.50903412983308
H         0.43757030927963    5.36040013650779    0.99253991197529
H         0.85592369139347    3.69499017334229    0.51711872789639
H        -0.11283734735510    3.97834093138390    1.96786261222161

