56
CSD_code = WELREL | q = 0 | S = 0 | Stoichiometry = C21H29N3NiS2 | MND = 5
Ni        4.50307955822946    1.65555562743040    2.61416910319824
S         5.45505366866021    3.45271258805017    3.25906736453968
S         2.88365580554535    1.92058758840230    4.03451428115214
N         5.70509894845348    0.24120546290986    4.12672232303974
N         4.46242484283809   -0.30504622974217    1.54209400699436
N         2.97225310323870    2.11510335112230    0.82343491013889
C         6.67873675089859    2.60584611355314    2.33050326660443
C         7.05409994353039    3.11852892353431    1.08354646096403
H         6.55002573786124    4.00150544828691    0.71714983632724
C         8.06359144017910    2.53102460214942    0.34929083034756
H         8.33694770455648    2.93835491107897   -0.61360788040208
C         8.73214128199166    1.42507715582127    0.85106174119907
H         9.52587690233374    0.96346647095701    0.28236778208208
C         8.38509550295868    0.91990344866002    2.09391273834635
H         8.92903105868973    0.07382092306105    2.49509357238832
C         7.37138591705846    1.48982061463541    2.84842999106538
C         6.99884589688185    0.93779521118933    4.19692016467489
H         7.79245210769413    0.27801018759332    4.58227691936075
H         6.87441782395239    1.78018029560749    4.88531373505320
C         5.14350353236640    0.09898234869456    5.46516636370459
H         4.18415258123411   -0.40987892053936    5.40473652252685
H         4.96733777717114    1.08483647392289    5.88962002584414
H         5.81573786654310   -0.46975170371107    6.12416971712371
C         4.59247512809934   -1.32538241833838    2.58804074493962
H         4.66293569094428   -2.33327025159322    2.14650191176830
H         3.69917142283990   -1.27829354541603    3.21534830950413
C         5.47568112209006   -0.52439458514030    0.51442040470500
H         6.47028619083322   -0.53525143429504    0.95119247315966
H         5.46312924747279    0.27908041553761   -0.21794122065645
H         5.30856514923928   -1.48000979252520   -0.00572906803402
C         5.81433912128116   -1.06767321472210    3.47872798095685
H         5.88483680560595   -1.87397639930237    4.22280471841646
H         6.72177479230575   -1.09958645064115    2.87345533781406
C         3.13010841665135   -0.34940728355506    0.93386092908521
H         2.39378980571104   -0.35855436017119    1.74113091600597
H         3.00239960024582   -1.26512344929304    0.33150887093258
C         2.86948983410521    0.87376943846336    0.04793841350981
H         3.59690845604585    0.89872258154121   -0.76561249967330
H         1.87449468204611    0.77151796982558   -0.41044393506611
C         3.48744594356515    3.21085959464029    0.00546552161843
H         4.47368759117175    2.95469625765264   -0.38121357029748
H         3.57724075917722    4.10149744457683    0.62749093664445
H         2.82037330181664    3.43502130940142   -0.84089237120259
C         1.63471520836062    2.48065840592987    1.32009875676257
H         1.22799541476623    1.61319813030010    1.84889839497289
H         0.97546219629031    2.72101530245502    0.46873487614679
C         1.66021015926983    3.63580075646764    2.27906510233604
C         2.20025204534007    3.46259684277916    3.55799418297118
C         2.17607691625074    4.51175721108761    4.47062847294749
H         2.59065187941104    4.35257285172514    5.45373642461183
C         1.64478969654464    5.73483097045131    4.11222703119363
H         1.63614109757553    6.54806858107865    4.82301033812808
C         1.13097440963462    5.91986963654019    2.83891210206591
H         0.72162122077038    6.87710615356084    2.55092949455542
C         1.13989064912743    4.87256811460441    1.93286464955307
H         0.72874029253083    5.01697432370893    0.94259159336243

