55
CSD_code = WELSIQ | q = 0 | S = 0 | Stoichiometry = C18H32N2O2Zn | MND = 4
Zn        8.47623655029910   11.21073982164833    8.73095326714416
O         7.15887257660809   12.54268990153661    8.83212326942204
O         7.74158877139347    9.61988714851032    8.07505984336595
N         9.70219836454065   12.10638427132021    7.49333970952628
N         9.00324234091550   10.58073434888188   10.51291717534464
C         6.12441928441286   14.63606080519768    8.41826484441921
H         5.39508465838631   14.21357765965638    9.10354413229963
H         5.64362243034158   14.83647919986485    7.46345906114984
H         6.49520072672565   15.57765850419943    8.81717734190095
C         7.26536390494297   13.65481202567611    8.22863660680277
C         8.31999011433217   14.06011424013340    7.42752347748992
H         8.23889267121886   15.05124053981261    7.00648998456166
C         9.45985051346598   13.32319272430899    7.06645916534426
C        10.42759257314269   14.00870438452453    6.13554534645683
H        11.41966612313499   14.05583221540119    6.58331623202188
H        10.09881506627744   15.01830629305552    5.91020819999296
H        10.51166795976817   13.45398746968120    5.20166117440586
C        10.90175090543633   11.43543505822725    7.03273830687152
H        11.79288129415216   11.99181372625106    7.35994216256418
H        10.91843413682367   11.40268501378476    5.93486880644261
C        10.98215861534054   10.01072538712947    7.56412905108929
H        10.09629642099348    9.46643149073341    7.23571598660771
H        10.97595682225087   10.03444373026323    8.65570012996748
C        12.23406810982442    9.28363776629754    7.07976587682216
H        12.24258032328436    9.26281416703555    5.98742749706487
H        13.12353171883581    9.82822388657633    7.40710189911519
C        12.28672219394850    7.85759281551162    7.61305471562390
H        13.17920056805885    7.34616175196064    7.25941449931264
H        11.41430829605395    7.29851766101252    7.28313352066395
H        12.29737122979276    7.85838913869472    8.70071749122893
C         6.92903217620629    7.39387963900555    8.14712551136375
H         6.71465206911231    7.62341644048230    7.10715421435432
H         5.99540382448773    7.18200060300663    8.66365185563771
H         7.55862041097951    6.50892212242472    8.20362026587536
C         7.61921916158406    8.57952011743108    8.79355082904989
C         8.05539914757890    8.42190980433108   10.09801061892689
H         7.86112631049432    7.45935834282420   10.54729587998113
C         8.68121879918744    9.37492375267238   10.91834276581865
C         8.98622369125182    8.94019177990821   12.32957816152404
H         8.49978744546716    9.60397367993432   13.04316682274735
H        10.05878171847835    8.97950816686947   12.51828575717883
H         8.64058812335239    7.92638895692089   12.50545566854764
C         9.63662034142470   11.48211890312608   11.45557578687444
H        10.54785842744294   11.02255817794456   11.86451651613297
H         8.95850664238515   11.68019393739678   12.29736825242192
C        10.00533848930056   12.80666988333483   10.80101859389825
H         9.10519625969385   13.25091190588673   10.37509361572325
H        10.70671211286117   12.61823887941868    9.98662215466288
C        10.63020348347546   13.78834201740026   11.78898514583154
H         9.93019849734206   13.97645243824826   12.60624127217980
H        11.53341671509638   13.34951793672528   12.22065028868223
C        10.97995288484095   15.10610163205093   11.10896868998772
H        11.41159729264318   15.80548436947078   11.82132756497705
H        10.08901128566825   15.55660112791331   10.67766986528797
H        11.69836942495061   14.94264223838206   10.30873512731335

