88
CSD_code = WELTOY | q = 1 | S = 0 | Stoichiometry = C33H51AuN3(1+) | MND = 2
Au        3.42598924660014    6.89564218929717   17.13632260912768
N         5.14382868873962    4.74946264536055   15.88365399914839
N         5.89240452496232    5.32720488453872   17.80641944985240
N         1.85459281102388    8.36504154544708   17.37453487134620
H         2.19174964656244    9.17120939038060   16.84635234334583
C         4.90799787457659    5.55982251101073   16.92582084466688
C         6.74621882713724    4.37465097640221   17.32271486292647
H         7.60216676124162    4.04256915103788   17.87215633248741
C         6.27255082188483    4.00926707647814   16.10549568669369
H         6.64019270385349    3.30106639507277   15.39244807613509
C         4.30977308845561    4.68986870488017   14.73099755631685
C         4.45327513215615    5.66536337828162   13.74245961696395
C         3.59056157954004    5.61756331746307   12.65465706426195
H         3.67805699688895    6.35378110561247   11.87190297907521
C         2.62174161544481    4.63747378297207   12.56156184847333
H         1.95562130693130    4.61978086319659   11.71296464664205
C         2.50650858988846    3.67325521839563   13.54550405583000
H         1.74982144797837    2.91177200371355   13.45450167609204
C         3.35384268933077    3.67388434668631   14.64505125289147
C         5.52234713637798    6.73039325765104   13.81775386069200
H         6.08479878310656    6.61592784308027   14.74998202928243
C         6.50487949211977    6.57228883853527   12.65469736527618
H         6.00881836195625    6.73246837490801   11.70173643222102
H         6.93621303226026    5.57374133364221   12.65186021025042
H         7.31102360381785    7.29582105062098   12.74667963419611
C         4.90321890745933    8.12931465869939   13.82027623416122
H         4.21928576976014    8.23656433029154   14.66208071330365
H         4.35337161687174    8.31578939549331   12.90235692354502
H         5.68386820427221    8.88047892377592   13.91003675735224
C         3.21374359169181    2.63636175837519   15.73562480238816
H         4.14717595966671    2.58954333911911   16.30651009123589
C         2.94911723354076    1.23719714630124   15.17881204776002
H         1.94950956893330    1.15800706818179   14.76154463016175
H         3.03581704521019    0.50384693757106   15.97683940323099
H         3.67057712691710    0.98921721606625   14.40384913289286
C         2.09356167898789    3.05684567590779   16.69239785258116
H         1.15102495783687    3.14434009788948   16.15737945041826
H         2.32429269652666    4.01829029301260   17.15033493304099
H         1.97682931222771    2.31677964221809   17.47995746007121
C         6.00850441972072    6.00917651225656   19.05133053152262
C         6.82613981637881    7.13968751312895   19.12394066891253
C         6.89059708947719    7.81750673583795   20.33404644256592
H         7.50604600572791    8.69802071244293   20.42021988590344
C         6.17494124863684    7.37752892987620   21.43151165804428
H         6.24048768691693    7.91412354221739   22.36531970921320
C         5.37756033399529    6.25319013737155   21.33889468249120
H         4.82671163365206    5.91980077817415   22.20363397936837
C         5.27600912867509    5.54755154594316   20.14679387424907
C         7.58509364218260    7.64559837510361   17.91920693705274
H         7.57106945831584    6.88105604719660   17.13550616419219
C         9.04965496319836    7.93540555037901   18.25091146827699
H         9.51150770457017    7.07436015632546   18.72835958114487
H         9.14396623718969    8.78934717984480   18.91504724902499
H         9.59703538787091    8.15768316827460   17.33826776291309
C         6.89342427618966    8.89702651399538   17.37007402628083
H         6.87210606840564    9.68181150579654   18.12179644058019
H         5.86822679017619    8.66841218157994   17.07876709660949
H         7.42816062841716    9.26720707455848   16.49911805780872
C         4.39255242560925    4.32526281035506   20.06035759001174
H         4.45846050678854    3.89973608824565   19.05381650088188
C         4.85454619495845    3.25501759003353   21.05155677021393
H         4.75098913496365    3.60050324733650   22.07600951740640
H         5.89796657707715    3.00013294120211   20.88025621659892
H         4.25578626358035    2.35548208420362   20.93327452458167
C         2.93139543814638    4.70618544649416   20.31118275326284
H         2.61181025897574    5.46894900808496   19.60109913687090
H         2.79836888717141    5.09500585986184   21.31667561357460
H         2.29309647414653    3.83410682855155   20.19410931247101
C         0.59904504778219    7.94267439383563   16.70440407845355
H        -0.13907964945779    8.74976144749426   16.77786647463971
C         0.88239260987941    7.70241313278226   15.22504813384030
H         1.56009341528303    6.86048467061493   15.08862179401065
H         1.32471785827250    8.58286921693809   14.76280588109027
H        -0.04507170965608    7.48083878533315   14.70499513056180
C         0.02458813825893    6.68973871579586   17.35080037552599
H        -0.29168912756701    6.87397899994278   18.37369700858906
H         0.76213284171568    5.88971141933335   17.34946476690960
H        -0.84267015631312    6.35697817929900   16.78794873592673
C         1.70609508214518    8.84046104905283   18.77299536241374
H         1.35252239514245    7.99520879108120   19.37030551585043
C         3.07073552097413    9.27528359352121   19.29960249578610
H         3.46778742584756   10.09521323377174   18.70418124360672
H         3.78449739054867    8.45322564340103   19.28185516131284
H         2.97783655808672    9.61570639713190   20.32669133343346
C         0.71951932590397   10.00050658438189   18.89609281612029
H        -0.30203539741793    9.69115869515017   18.69402774181474
H         0.98669623141203   10.80581484639245   18.21395732967862
H         0.74710308525578   10.39329947252427   19.90822473214721

