55
CSD_code = WELVIT | q = 1 | S = 0 | Stoichiometry = C24H21Cl2N7Rh(1+) | MND = 6
Rh        3.18443283014521    3.63404885569206    6.62344437613354
Cl        2.79247303357694    5.26324817075772    5.14335379613988
Cl        4.07942565134281    2.34224363356616    4.97916011357158
N         0.36614085154684    0.77387872673030    6.74226319200990
N         1.45944844437601    2.65838948561880    6.38733187912194
N         6.90166111328028    3.60797288595970    8.14268833464826
N         5.02829549320304    4.19659109137648    7.13480504421293
N         2.08060945511008    4.56440536774694   10.45237403642069
N         2.44973151643645    4.59620956011023    8.27528865304276
N         3.55592489733258    2.05192548632295    8.08780320299417
C         2.77842019459684    0.92462851115532    7.54798450170325
C         1.52404117651770    1.44946632004248    6.91172207666165
C        -0.49664651124161    1.59855625529420    6.04886383086303
C        -1.79574969674501    1.42482628280251    5.59707567082701
C        -2.36581837991197    2.48731975103534    4.92550332985165
C        -1.67197663321051    3.68270448202640    4.71272215464089
C        -0.38187893785059    3.86654265034402    5.16171057258581
C         0.20823003566891    2.80176931652121    5.83552832505349
C         5.01819537912867    1.89528992479814    8.02571865211968
C         5.65184201555341    3.23531207939776    7.78853820401087
C         7.09953895947281    4.89114039112952    7.67378126591629
C         8.18208038274482    5.75476760723540    7.73968142482347
C         8.02255602694980    6.99464941554200    7.15471773152821
C         6.82871434279160    7.36641108806025    6.52843355915219
C         5.74612848650155    6.51611098667680    6.46008663953637
C         5.89415439033721    5.26038453881620    7.04076892169790
C         3.08275675366178    2.48688006087257    9.41299169450568
C         2.53891801341715    3.88393739801846    9.37538724620632
C         1.66943414565143    5.80537333968902   10.00944748701758
C         1.12601530645228    6.89975041177860   10.66418940229098
C         0.83293239279337    8.00273804185987    9.88791172937777
C         1.07045235014434    8.01800882521726    8.51002692918053
C         1.60908570762069    6.93394462989798    7.85055823355478
C         1.91037673571692    5.81506748705083    8.62015487466865
H         0.18421137617922   -0.18333354177383    6.99801833007847
H         7.59667813365999    3.03423152820477    8.59272575729500
H         2.03926443557468    4.23602109385538   11.40356583572802
H         2.55482468041506    0.16828628354291    8.31197563679063
H         3.36624457384204    0.46021240718227    6.74722666120592
H        -2.33024338744096    0.50221837509823    5.75761262117703
H        -3.37287675932936    2.39261678409658    4.55089165253724
H        -2.16286976655551    4.47995061141059    4.17743615716103
H         0.16748011240294    4.77853677959177    4.99308507102787
H         5.25501406076519    1.27641177837356    7.15200766220117
H         5.42457127577537    1.41401621012511    8.92524647002614
H         9.10427832759548    5.46800562035365    8.21924297885445
H         8.84196006999823    7.69573541929510    7.17783399758892
H         6.75877904392175    8.34635397192842    6.08355407301526
H         4.82509818140316    6.78593218503633    5.96933876193834
H         3.90235766368134    2.44355639770699   10.14216798743787
H         2.29448931801273    1.81197900508582    9.77058301350490
H         0.94243487099807    6.88854954523550   11.72668026945860
H         0.40940860461246    8.87702886715072   10.35668441027014
H         0.82358596442617    8.90620320504842    7.95039157573853
H         1.79876329695019    6.92809441430659    6.78931399089684

