42
CSD_code = WELWAM | q = 1 | S = 0 | Stoichiometry = C18H18ClN4Pd(1+) | MND = 4
Pd        0.72414316302067    2.21981592421208    9.75509638354132
Cl        2.18684507937485    1.65197410987756   11.34984304902466
N         0.19486908280985    3.91611938883706   10.59016779375850
N         0.99137502229368    0.57415874861801    8.69301145680634
N         2.05716021069102    3.24576786461020    7.85985024710825
N        -0.73228639391001    2.70798299289775    8.31757309675596
C        -1.70019669774617    3.43368985173346    9.15052965840676
C        -0.96294823638081    4.37389810073496   10.08266831955132
C        -1.45556193912310    5.62248448440131   10.42613967057673
C        -0.73907414322777    6.41146664823854   11.31605013659776
C         0.45583536717215    5.92860905868657   11.82361602345892
C         0.89326624987414    4.67347358920287   11.42980507097113
C        -1.14524527558858    1.37384217690271    7.86958255851081
C         0.05872975472832    0.46718075953752    7.73169407295383
C         0.18655791374458   -0.45228030738064    6.70300854421635
C         1.30000626773019   -1.27995224024119    6.66931871703869
C         2.25212245601042   -1.15889026936404    7.66813050226555
C         2.06297946582440   -0.21212982128812    8.66207517009254
C        -0.23264704923412    3.52854501817821    7.20619367102131
C         1.18811630467173    3.14888114267278    6.84791039668170
C         1.56425015343864    2.73948684990411    5.57929221392544
C         2.89376596760531    2.40579808378575    5.35697878490308
C         3.79106464697442    2.49546017663326    6.40777591508770
C         3.32669017466181    2.92578330511791    7.64326826768009
H        -2.24593978347417    2.70920493929999    9.77232334527983
H        -2.43268315947562    3.98265239119377    8.54269376375143
H        -2.38769244468877    5.97010668366626   10.00898842035347
H        -1.10972237992167    7.38330295569765   11.60115692742558
H         1.04321204985818    6.50982083285415   12.51505113576773
H         1.81835326449541    4.24908442662719   11.80266207755865
H        -1.70263286157511    1.41672838463915    6.92311696839232
H        -1.80174010839261    0.93096364965847    8.63219882346402
H        -0.57500613300114   -0.52271904850985    5.94249879966243
H         1.41641276592526   -2.00366719421202    5.87824732778356
H         3.12862015753861   -1.78526729283025    7.68245428757692
H         2.77579870828688   -0.07859825018167    9.46785815070618
H        -0.21957158028762    4.57383826189169    7.53181332673028
H        -0.88916529158075    3.44010210767617    6.33078333751798
H         0.84065834062794    2.68525482021939    4.78063346063966
H         3.21734198293185    2.08364080444758    4.37941011619712
H         4.83064979712262    2.24541409203516    6.27367095886715
H         3.98678913047595    3.02997179925115    8.49505905137582

