65
CSD_code = WELWOZ | q = 0 | S = 0 | Stoichiometry = C34H24N2P2PtS2 | MND = 4
Pt        0.71661659550545    5.52368945151541    5.13949802493948
S        -1.50659197927512    4.95057271073689    5.04838903146797
S         1.23838138189436    3.38728494413308    5.80456052681454
P         0.27777036575279    7.67745516656919    4.50578341579095
P         2.90982326386208    6.17001328257658    5.17387681731353
N        -3.77697667115757    2.16811542607745    5.60541155016735
N        -0.27124166276724    0.17197948085068    6.57157283795057
C        -1.48048712818099    3.27476042144714    5.53396406014864
C        -0.32719449766765    2.61771502002285    5.85134678750237
C        -2.73340792658310    2.64769466446859    5.57967518803004
C        -0.31851256433370    1.27235517758070    6.24494910587450
C         1.77578169950542    8.66986496176254    4.82175396656673
C         2.95709567388495    7.99295630207711    5.13113652463767
C         4.11676829847771    8.71053616228204    5.39968876272130
C         4.09684523711959   10.09363002789512    5.35668400579376
C         2.92353103009161   10.76631967778256    5.04688263545103
C         1.76413590272399   10.05909981146686    4.78083359053730
C        -0.99228585037924    8.54310734741640    5.46657170961682
C        -1.76715962447342    9.58333723178501    4.96642417995788
C        -2.70194806960878   10.19101251493466    5.78580452790077
C        -2.86481446732830    9.76756570366669    7.09508083082916
C        -2.09333271586613    8.72986344371887    7.59479457386526
C        -1.15907220257988    8.11874495339086    6.78156003915270
C        -0.13985666448469    8.01123773871542    2.77632765246079
C         0.76363344311928    8.55601987294278    1.87082354388302
C         0.39526137892479    8.71289604590535    0.54625255806074
C        -0.86287155848893    8.31964262342724    0.12077298970661
C        -1.75885256546071    7.75861977830534    1.01880513407160
C        -1.39854975943549    7.59683607802091    2.34212239459280
C         3.94671492472441    5.65632055121153    3.78093493013495
C         4.27504510931164    4.30273080262284    3.71232139065404
C         5.00760361535031    3.82414083312391    2.64399917193721
C         5.40353114600660    4.68815521962801    1.63363327863759
C         5.06246748000802    6.02932259138696    1.69108869414664
C         4.33054527087682    6.51748801810099    2.75931012342649
C         3.88058682358387    5.76208569134392    6.64888303665834
C         3.17341976763523    5.67490216410877    7.84444146352067
C         3.83449466920317    5.38205663129791    9.02133573928786
C         5.20496692005598    5.17402861824097    9.00623819749014
C         5.91100338405793    5.25802868565129    7.81689464860504
C         5.25484946210368    5.55196614784318    6.63474807797068
H         5.02724270222834    8.18203395323678    5.64567667400570
H         4.99720177089957   10.65060781964560    5.56844422714962
H         2.91304483921541   11.84554994774017    5.01759047307721
H         0.84598156739875   10.57909167713167    4.54576321665756
H        -1.65096485852502    9.90305771682117    3.93973969642395
H        -3.31072468011968   10.99485882470754    5.39868469186363
H        -3.60203615537716   10.24222572799377    7.72513930883578
H        -2.22926480613288    8.39444014855561    8.61189978452357
H        -0.55829313186442    7.28744386613407    7.14208555972296
H         1.74716560912720    8.85897924846931    2.20268399946620
H         1.09468342029847    9.14064684162508   -0.15701050257867
H        -1.14380739360239    8.44300799294637   -0.91443199555694
H        -2.73504325020322    7.44169507356260    0.68383870000541
H        -2.08035210747114    7.14574357606934    3.05167809891296
H         3.94485450145977    3.63861721686578    4.50099396289465
H         5.26482304053659    2.77684628194370    2.59318599629471
H         5.97283306818243    4.31309118444673    0.79635631462502
H         5.36476128730617    6.69852368612404    0.89888420662145
H         4.06205980371174    7.56402430882773    2.80274190527151
H         2.09688843969458    5.81911233567077    7.82622851475889
H         3.28492801787022    5.30569868140775    9.94741935297977
H         5.72373824446037    4.93673723940255    9.92294497972137
H         6.97756934629891    5.08764019251452    7.80889380685640
H         5.80289378889257    5.60317448212324    5.70369330918610

