61
CSD_code = WELWIT | q = 0 | S = 0 | Stoichiometry = C30H24N2P2PtS2 | MND = 4
Pt        2.38875747898415    3.67620228396498    6.91147113132926
S         3.33475363540548    5.33341508278388    5.62031431609486
S         4.39943395394852    3.34956253139219    7.98726664204356
P         0.39281314406937    3.77396500353447    5.77775098816806
P         1.29052504248928    2.17951263435333    8.26413867799852
N         6.48096499621773    7.05080635475880    5.04169618305307
N         7.82037101324799    4.56134293666220    8.06900784073216
C         4.97982035531841    5.34981707937946    6.20670419006730
C         5.42303684693637    4.52516987003681    7.19964450806883
C         5.82198237083795    6.27928669481584    5.58046253316428
C         6.74630106051620    4.56112530101256    7.66126325124919
C        -0.90090800935101    2.93938654500207    6.81000411384764
C        -0.28169367144754    1.68497104452419    7.41631867892758
C        -0.38307597643615    5.26018958787899    5.09821061590861
C         0.21722544131826    5.81430709970144    3.96802852146431
C        -0.27660576370566    6.98355647989606    3.42438539408365
C        -1.36631906612544    7.61175357173635    4.00792497680833
C        -1.95452351320852    7.07268222160258    5.13993738261814
C        -1.46270652416446    5.90337680333741    5.69334815908784
C         0.48888510653008    2.65585258531378    4.35041125428611
C        -0.53729563101443    2.57004301702529    3.41474729532064
C        -0.42710045848555    1.68524244481637    2.35818573458198
C         0.69970032089770    0.88661513715648    2.23192818279092
C         1.72363819013613    0.97116973833703    3.16154425164065
C         1.61893417516318    1.85616572540570    4.21894733211471
C         0.65103066689144    3.07095161688564    9.71097730457550
C         0.01697015748988    2.41057960572428   10.75865584277067
C        -0.47531851135591    3.13722237315453   11.82688213071858
C        -0.33880435089692    4.51707844060974   11.85373566198624
C         0.29365223650541    5.17696551328096   10.81236805184465
C         0.78962177508715    4.45429512650851    9.74278849723440
C         1.98330257956802    0.66646512976798    8.97305291589709
C         2.91096153973362    0.82978282641370   10.00137168738942
C         3.53347772488356   -0.27191448058572   10.55389556901285
C         3.24104875306913   -1.54179897777492   10.08011506665013
C         2.33137645047895   -1.70600160984483    9.04876763432976
C         1.70647791899653   -0.60643941466247    8.48673459457230
H         1.07452603831915    5.32104618998185    3.52969732182572
H         0.19080747178359    7.40972803034759    2.54971163220175
H        -1.75211221035200    8.52688774344722    3.58452288495134
H        -2.79768469992924    7.56788005135822    5.59884071740369
H        -1.92064212629829    5.49695671263314    6.58338654015339
H        -1.40863491703011    3.20371812899761    3.51225881284703
H        -1.21962276203535    1.61953335690229    1.62742751110292
H         0.78119783926692    0.20113250533192    1.40168740419907
H         2.60334663828886    0.35392141965174    3.05798855058863
H         2.42032564005733    1.94862639818209    4.95281303031413
H        -0.07652477871096    1.33304819212158   10.73727251524228
H        -0.96389781978431    2.62733717858411   12.64401989173958
H        -0.72153394088501    5.07791594460786   12.69326939980514
H         0.40533927577179    6.25050154580851   10.83807215874232
H         1.30377111363003    4.95306837453603    8.92048608283499
H         3.13974478433583    1.82702365653056   10.35304892990278
H         4.25183087777797   -0.14171618814181   11.34900801328233
H         3.72875254930765   -2.40366579114328   10.51012434865821
H         2.11091128213912   -2.69519297712446    8.67511809824089
H         1.00741139736380   -0.74291842457744    7.67448628606142
H        -1.19902731559625    3.62502728457676    7.60963688906902
H        -1.77546285791695    2.70395416491437    6.19566945633381
H        -0.03528305237695    0.97443948105708    6.62073019658623
H        -0.95754988569972    1.20364309756312    8.12993621549880

