35
CSD_code = WEMFAW | q = 0 | S = 0 | Stoichiometry = C13H14O7W | MND = 7
W         3.58576264231360   16.51715151538153    5.32844388447659
O         4.67989528616355   15.50076679534099    6.78844477201980
C         5.56049048562267   13.68088051056342    5.57318463940747
H         6.06389618655104   12.73104505808693    5.66447418622299
O         4.72000256242686   15.25005808067654    4.00123058378716
C         5.24919363750383   14.37122443317356    6.74548372233182
C         5.77082308160323   13.32757327052129    3.11557348008815
H         5.29339845457587   12.35043210119436    3.13790558930017
H         6.84722623521490   13.18142780370626    3.17051811775457
H         5.51907107781755   13.83191000678763    2.18644634131997
C         5.29558358293991   14.15976654500435    4.28413410506454
C         5.64166785898859   13.74888478754286    8.06583661369952
H         6.72606091930701   13.69566113999218    8.14094242517167
H         5.24676208405213   12.73831622584709    8.14010438673358
H         5.25710467624724   14.35392223796467    8.88352842956225
O         2.55323227496608   14.67335275334724    5.48634568140816
C         1.47277076250464   15.10674671801787    7.55955842780258
H         0.82188495420620   14.63587985572586    8.28190556363069
C         1.90075421851318   16.40064452976628    7.87285873168827
O         2.64578748511475   17.15961440497592    7.18424087116704
C         1.80084072899178   14.33170069784723    6.43919640182471
C         1.20030748864926   12.94341893858464    6.36977834173123
H         1.60870002421233   12.41113873717661    5.51423691481509
H         0.12051001405747   13.01855869699461    6.25836273413492
H         1.40990089902272   12.38783059014592    7.28074399862384
C         1.40844708126461   16.98196551062107    9.18151667307739
H         1.90468239258637   17.93168237453281    9.36139225329249
H         1.60633917900180   16.30120819246604   10.00542115161143
H         0.33453547574670   17.14713418326725    9.12490039156187
C         3.43083632777686   17.61940924067320    3.67364724002156
O         3.48839973445990   18.32706378379083    2.73745307476909
O         0.89181378757100   17.58131276339487    4.05451850192549
C         1.92339905174888   17.25637275840353    4.50945185392816
O         5.37357306611619   19.10041373585682    5.41329126155317
C         4.70504628216201   18.16273102262563    5.45182865448956

