17
CSD_code = WEMGUQ | q = -1 | S = 0 | Stoichiometry = C4H12Au(1-) | MND = 4
Au        3.95016111826236   -4.83207098811346    5.95934766512782
C         3.69654538824653   -6.16285725416731    4.40148563656258
C         5.31350952394064   -3.80897765639163    4.79446541407774
H         2.75423014084361   -6.71269828049237    4.43114560822643
H         4.48657807965434   -6.91796429764290    4.39520009092957
H         3.73585974311706   -5.67871396834827    3.42402094704262
H         6.01735940065906   -3.19735043600998    5.36162576052578
H         4.80890657641452   -3.12746197814845    4.10502071778613
H         5.91824890949955   -4.47180322368014    4.17294488590822
C         4.20561735621032   -3.50273785208054    7.51812677535845
H         5.14801327880647   -2.95306857852785    7.48840232906508
H         3.41573685057134   -2.74746120224408    7.52471769779895
H         4.16634637146018   -3.98710406163382    8.49546743467629
C         2.58867189543611   -5.85669766247313    7.12504466106339
H         1.88480230215778   -6.46844774222754    6.55801355768439
H         3.09362777078788   -6.53811254156504    7.81431291034731
H         1.98388529393226   -5.19407227625350    7.74675790781927

