66
CSD_code = WEMJON | q = 0 | S = 0 | Stoichiometry = C31H27Cl3N2OPRe | MND = 6
Re        3.14438309640357    2.36976592102255    2.11118424360166
Cl        2.99241284420192    2.46882073297212    4.39535028080156
Cl        2.17148278037709    0.30651843836235    2.05897754764813
Cl        3.77950042890108    4.55666407731656    1.91007798727588
P         0.25430006941284    3.12312372114555    3.62451441860899
O         1.05082280591158    3.17846075153054    2.36059866509878
N         5.00499018851133    1.68722067797336    1.83485179809348
N         3.29270342527602    2.30501417024246    0.06685274595279
C         5.43163726242880    1.56594467887461    0.53412211453970
C         6.72493544778966    1.11430836301415    0.22307053167771
C         7.58852202027425    0.78420615817011    1.23298629125215
C         7.14422466305717    0.90989594208245    2.55804156068269
C         5.87211703184886    1.35557563883518    2.80667872370547
C         4.45481428199949    1.93516176374596   -0.41468310195708
C         2.28820706933388    2.76716164378594   -0.78277883221432
C         0.96596668774878    2.38436445943273   -0.55579182053196
C        -0.04646181995765    2.88444766464902   -1.34842174110417
C         0.22343473642271    3.77786697762065   -2.37925441919572
C         1.54427303527682    4.15224588908762   -2.60251926577389
C         2.56855511695594    3.65401269503144   -1.82307318388637
C        -0.87600797852391    4.31645184392155   -3.24179295122412
C        -1.43239189226795    3.61439332622258    3.13461030976065
C        -2.52173045895080    3.41736876031182    3.97200666417779
C        -3.78060721646054    3.82676762846217    3.57319072500756
C        -3.95519914622156    4.43459258688422    2.33955124842202
C        -2.86939466009832    4.63155147603479    1.50289672653811
C        -1.60848657337995    4.22441939769020    1.90126056860344
C        -0.00432666492164    1.45999176163183    4.31917358587935
C         0.44163871363939    1.02988294176042    5.55896624291306
C         0.19049748974944   -0.27139674271480    5.95888662663035
C        -0.49807594953488   -1.13853210015750    5.12723014614314
C        -0.94418993022026   -0.70743306694704    3.88806853278864
C        -0.70176929090417    0.59195103109824    3.48691431024569
C         0.65833982520723    4.36502792018098    4.88483553700775
C         0.09329233017258    4.33605925592356    6.15248500488147
C         0.38957032558765    5.34036994835088    7.05590640056720
C         1.23524957712691    6.37637207664308    6.69338339330798
C         1.78181037645481    6.41459665917216    5.42109104468557
C         1.49009145509688    5.41278300414738    4.51413209098569
H         7.00918566475399    1.03857431383822   -0.81470457355477
H         8.58710907148902    0.43585519772800    1.02230377971942
H         7.79423674256399    0.65979194690543    3.38042076588719
H         5.50640970891216    1.46297539015857    3.81930987937289
H         4.64634834496966    1.89623771166837   -1.47967007664039
H         0.75067919125730    1.68563566967917    0.23814517658638
H        -1.06634919280540    2.58061635622845   -1.15983902012966
H         1.77154813252073    4.85309123316044   -3.39303741956461
H         3.58415419793084    3.98603758906633   -1.98085840605568
H        -0.70939921618862    5.36719370008123   -3.46964948610215
H        -0.90958831692429    3.77163529521019   -4.18599281430661
H        -1.84161010406012    4.20813559264898   -2.75411457310085
H        -2.38436838478676    2.93149102951234    4.92774826444662
H        -4.62922487179934    3.67051034732548    4.22325816058225
H        -4.94057920105428    4.75224478519060    2.03113814211883
H        -3.00487879514633    5.10381946843572    0.54062783058337
H        -0.75090460787521    4.36326404181217    1.25863481314320
H         1.00250138722298    1.69753271212157    6.19577278828253
H         0.54308590600695   -0.61113883531394    6.92177115929189
H        -0.68185137702872   -2.15533975335414    5.44222873690312
H        -1.47363613998772   -1.38511970079750    3.23484320746096
H        -1.03730742218162    0.94575523344522    2.52018434821736
H        -0.56891709288418    3.53055085943702    6.43425142055498
H        -0.03922017459913    5.31382501425001    8.04734880448488
H         1.46783977110306    7.15474391271445    7.40539413826192
H         2.43920673260265    7.22222832326257    5.13545621986033
H         1.92089854206722    5.42295449226486    3.52254798203943

