37
CSD_code = WEMKUU | q = 0 | S = 0 | Stoichiometry = C13H17N2O2ReS2 | MND = 5
Re        3.22877310435381    1.79534871651230   10.07947984093178
S         3.11247513258886    1.73594868480188    7.77957315321166
S         2.56877410096205   -0.38833320393520   10.38592461090707
O         4.86696312764596    1.81838749893097   10.40487598622298
O         1.03399891044966    3.67522448294826   12.96163064223569
N         2.22945329343759    3.73845541187359    9.68108656975353
N         2.01839818126194    2.08389359208737   11.64469457402932
C         3.18827913929156    3.54614081318008    7.41483753963109
C         3.08458562231461    4.39448933882344    8.68088661321565
C         2.24566718411835   -0.26448163758216   12.18896132001138
C         1.46330762434833    1.00859650477431   12.45671447622633
C         1.71126250469753    3.34082006648988   12.00785256764270
C         2.29724482848174    4.36064198914998   11.00634616278963
C         0.81515025553443    3.64896211508718    9.23316656096078
C         0.12152854571869    4.98154706338501    9.09844012367697
C        -0.56826472833643    5.52225747379647   10.17941644391530
C        -1.19092190893343    6.75325888072005   10.06842947134345
C        -1.13755665211990    7.45516943437709    8.87617174007468
C        -0.47131274678232    6.91498568123174    7.78962944692590
C         0.15238937129622    5.68430071134210    7.89935883917041
H         4.13812120102148    3.72604712806128    6.91415297927758
H         2.38229585664244    3.74928040329455    6.71017483763947
H         4.08161524062414    4.49635567234884    9.12373202524276
H         2.70467718577275    5.39674796896038    8.44188816748331
H         1.69611063785612   -1.15489514692304   12.48589089944503
H         3.22058119130854   -0.24456915195230   12.67563767075035
H         0.40758901694163    0.86568961954343   12.18690777887726
H         1.50822230869989    1.29010393243281   13.51498079840399
H         3.34294673948066    4.54459825952192   11.27541684726754
H         1.74915108412765    5.30614504797702   11.06158550912895
H         0.79400651529372    3.11673999875659    8.27814834662451
H         0.27441416028118    3.04492331154179    9.96992903469331
H        -0.62623103475240    4.97737453161420   11.11116844886699
H        -1.72060741765863    7.16161628240977   10.91559257686286
H        -1.62273179400206    8.41552439974345    8.79037999966261
H        -0.43936315965489    7.44927006691187    6.85191172148660
H         0.64970737769061    5.26313405776470    7.03702567540985

