27
CSD_code = WEMNIM | q = 1 | S = 0 | Stoichiometry = C4H16Cl2CoN4(1+) | MND = 6
Co       10.96338427167770    5.12818835522186    2.11790074497754
Cl       12.76614399975230    6.32518902270539    1.64565753757021
Cl        9.16153447276226    3.93014293336173    2.58958890224454
N         9.94804786341524    6.09209990609352    0.74521682408023
N        11.42495609021706    3.88689117595847    0.67163155262451
N        11.97893167556820    4.16391356136077    3.49036711539425
N        10.50193342692114    6.36944673267168    3.56387040713174
C        10.36481283630371    5.62386439380603   -0.58797211847186
C        10.52779536422345    4.11636275698710   -0.47422225896950
C        11.56716538784524    4.63589487714638    4.82385703803640
C        11.40346380480475    6.14306179010143    4.70685709628126
H         9.63569045756441    5.89103298315758   -1.35754528071381
H        10.02333117598896    7.10946703167721    0.77314246681236
H        11.32585523898702    6.08398609258960   -0.82950394236974
H         8.96272584395301    5.84814792738095    0.88265802393130
H        10.92936570478355    3.68623654301406   -1.39563223013351
H        12.38215226828397    4.11309166603497    0.38559987118028
H         9.56273995342903    3.65412082969113   -0.25384343744066
H        11.39856700373473    2.89607536983176    0.91470135046314
H        10.60728694967336    4.17625975335242    5.07070124021397
H        12.96443845773124    4.40518779316085    3.34981772675178
H        12.29949177833284    4.37092143327827    5.59109295394400
H        11.90067850143526    3.14672337309820    3.46455624302707
H        12.36761922876854    6.60479024705100    4.48150496683165
H         9.54608390980323    6.14163491392980    3.85307808445509
H        11.00541609843644    6.57554506543652    5.62866872877980
H        10.52558823560330    7.36002347190121    3.31955039336791

