33
CSD_code = WEMPAG | q = 0 | S = 0 | Stoichiometry = C13H12Cl2N4OZn | MND = 5
Zn       11.10147090645590    1.34857316636400    2.25434156696252
Cl       10.48701904289960    0.24409424758007    4.15386411379315
Cl       13.08664695092912    2.08192989329835    1.73957200041166
O        10.81195750124759   -0.52606453746195    1.06230831423280
N        10.09836314661736    3.31910567962419    2.44004263042430
N         8.92556865987510    1.09187441877787    1.79609010090426
N         8.64333794144632   -0.20486153460756    1.65976040087503
H         7.83821064616533   -0.59241117960113    2.15113695086286
N         9.50180142227300   -2.33365118248577    1.41189406305074
H        10.30810918848922   -2.93165141900555    1.32727626277265
H         8.69888478502710   -2.70758182499821    1.88746312907322
C         8.15725678369543    1.95786189160850    2.34022555338196
C         9.74269001254826   -1.00672397789592    1.38802928883056
C        10.73141858355346    4.46883252919960    2.58010335768990
H        11.80916215789920    4.41853756067483    2.50683367641546
C        10.06072601926913    5.66302281735197    2.80540548103890
H        10.61175261334512    6.58226809064410    2.92098895054509
C         8.67660808901505    5.64124113257688    2.87780482232296
H         8.11862881231354    6.54987898988363    3.04836897989569
C         8.01396800712530    4.43497860987908    2.72323757308377
H         6.93686150805437    4.38107807093161    2.75838687711934
C         8.76548313141275    3.28221310503198    2.50492397081966
C         6.80312446659988    1.68885918689653    2.85264004604435
C         5.85815473106589    1.03721954510802    2.06127473406384
H         6.10319386179662    0.77268452225490    1.04193677014259
C         4.59616852832121    0.77087761731875    2.56255290731379
H         3.86614299970380    0.27609903160401    1.93948747575136
C         4.27137502302489    1.13640304226264    3.85819301378086
H         3.28767463203857    0.92348220931923    4.24844991093247
C         5.21022689584811    1.77526232668250    4.65303447402252
H         4.96040926544654    2.05548617790294    5.66505757133300
C         6.46868019071586    2.05598651733593    4.15522704568741
H         7.21002349577620    2.53469527588213    4.77668798649409

