131
CSD_code = WEMRUE | q = 0 | S = 0 | Stoichiometry = C63H63CuIP3 | MND = 4
I        11.18653694694065   15.63516058467494   11.98434871973358
Cu       11.61113298673675   15.18167473392235    9.53567546726589
P        12.59791197057523   16.98039226061678    8.38295977412613
P         9.54654134942125   15.03254190123932    8.48443382909717
P        12.77771216948104   13.19314364223676    9.15945408680397
C        11.77046853845470   18.57339793889157    8.73049298332257
C        11.64531936982426   18.88302662768863   10.08067609501239
H        12.04057073871234   18.20263690857181   10.82169021732229
C        11.02151452587607   20.04743867628433   10.49915586196477
C        10.53486840254276   20.92066487930803    9.53445991674106
H        10.04990132784991   21.83798772448923    9.83758220074055
C        10.66406068582144   20.62491016857301    8.18895000039818
H        10.28646409066244   21.31591566442195    7.44810124371830
C        11.27100883533743   19.45247539765244    7.77770699223622
H        11.36355760680255   19.23913189182776    6.72276342581717
C        10.89611088252580   20.34052510538798   11.96135381844118
H        11.83948842412265   20.72879802334449   12.34582855402637
H        10.66565269083129   19.42997745937075   12.51023447585388
H        10.12080014787540   21.07979600859797   12.14816837974533
C        14.21114592642111   17.36928704002920    9.14085227964732
C        14.80332978237724   16.43036688044419    9.97141608348599
H        14.31243661980493   15.47713068304314   10.13755769337821
C        16.00835028385508   16.69647175745323   10.61094567790883
C        16.61424043949250   17.92515964163665   10.39211539248889
H        17.55119475919118   18.15192887039245   10.88082766919156
C        16.02858883512721   18.87084407992125    9.56349449994545
H        16.51319560914946   19.82457279402800    9.41043802431863
C        14.82647729694981   18.60400582513830    8.94129269110885
H        14.35728687347598   19.34316947618008    8.30614012578951
C        16.61185490580596   15.67560171675441   11.52304082215852
H        15.93446031638810   15.47328664896744   12.35127844979208
H        17.56193306770427   16.02050010809985   11.92309424480450
H        16.77080240424369   14.73701668728725   10.99355132612824
C        12.94108957884372   17.13190231056555    6.59668641905326
C        11.83635214262248   17.05968856220617    5.75374760552092
H        10.85016732527710   16.97015011350960    6.19187871461728
C        11.97327671450612   17.10841880527719    4.37459440336830
C        13.25220955491661   17.20984524775515    3.84122068188298
H        13.38330051231483   17.24432256689873    2.76886870284960
C        14.35971440911686   17.26371683227299    4.67111320149504
H        15.34807195375343   17.34195444451363    4.24002501702702
C        14.21445954732660   17.22203302795435    6.04575401403405
H        15.08551528514936   17.26362479912210    6.68488344281363
C        10.75894179500049   17.06202239217949    3.49761331693156
H        10.18295319758441   17.98126546610726    3.60669798931600
H        10.11539939862389   16.22984778402132    3.78025357416358
H        11.03614869626123   16.95229286348982    2.45200863972176
C        14.15857772771409   12.75035602671865   10.27033647543711
C        13.96855753952054   12.99914259408162   11.62701046295613
H        13.04650480490278   13.45314623728173   11.96188078070943
C        14.94683694327379   12.68884974742123   12.55935157497588
C        16.13480836520683   12.12320066133841   12.10971410572495
H        16.91014253582620   11.87473714291337   12.82046112735483
C        16.33760095892405   11.88774404731637   10.76065960792712
H        17.26984167909733   11.45584626302477   10.42452283847786
C        15.35868248939408   12.20057350578234    9.83418048471355
H        15.53051832556683   12.01615219530682    8.78356415708833
C        14.71287631439073   12.95207240483356   14.01414785405213
H        14.35289877768848   12.04623374766709   14.50300228135011
H        13.96226844812378   13.72732756278615   14.14744598635170
H        15.63445146845273   13.25402680162940   14.50720592319506
C        11.67167967732335   11.76027587541187    9.37016733104255
C        10.69215186045337   11.56917208391185    8.39648557468024
H        10.70094012209280   12.18797840445439    7.50880166844730
C         9.70754996485628   10.60733486603252    8.54552249500545
C         9.71305624874815    9.82186010485997    9.69351150426581
H         8.94770034445666    9.07090931979017    9.82758577035675
C        10.68269129184129   10.00062564480495   10.66344055324776
H        10.67613434322801    9.38472888936924   11.55110338660550
C        11.65784879086165   10.97136620450215   10.51491190975236
H        12.40065043567774   11.11258988340348   11.28609187840484
C         8.63296325884858   10.45044460646980    7.51409278151718
H         7.75339241592229   11.02002500174038    7.81774343198565
H         8.34026848288831    9.40762312360618    7.41102429884685
H         8.95960709880201   10.82850612740807    6.54761480261092
C        13.54636200503709   12.87601291090986    7.53628972765123
C        13.49659478391581   11.66122103350983    6.86563658154737
H        12.95619770906335   10.82850728454515    7.29479050962512
C        14.14577805924901   11.49966760208983    5.64891709174647
C        14.84965906353569   12.57151519976954    5.11202137303961
H        15.35755058547072   12.45429081402768    4.16522027278807
C        14.90440356286591   13.78577991064799    5.77532103270091
H        15.45071531233862   14.61320220914129    5.34692294552134
C        14.25358918820207   13.93943185970982    6.98330109580123
H        14.29235629918548   14.88377349468869    7.51420737229873
C        14.10335570182342   10.17620300907968    4.94585752719664
H        14.83465379058496    9.49768341911130    5.38544579296101
H        14.33767506743649   10.28745534830988    3.88993404689652
H        13.12234253577958    9.71605267085209    5.04579617932900
C         8.23416413232684   14.23407934844299    9.46962047538042
C         6.89193323002609   14.59052056413914    9.36880813938063
H         6.59583891551932   15.39583192642393    8.70834997113171
C         5.93027138947483   13.94296936801635   10.12759806855050
C         6.32841613219003   12.93422696375172   10.99999614608910
H         5.58303839354339   12.42613310418847   11.59535066181487
C         7.66238282938706   12.59577664557770   11.12826045122246
H         7.96494652765416   11.83066512234755   11.82746999303219
C         8.61672053464128   13.24713106103981   10.36905526132970
H         9.66223850781348   13.00349873390794   10.48674532051519
C         4.48200809270989   14.31169071347082   10.00655333890248
H         3.94660851546006   13.55214261309335    9.43562289741832
H         4.36461458239277   15.26702994324805    9.50076131229412
H         4.02068073284200   14.37562742025826   10.98974758212587
C         9.30811522497471   14.29267135026614    6.82649130985183
C        10.45079705093112   14.16557003289357    6.04198388681911
H        11.40756914940660   14.48620569720671    6.44156930137973
C        10.39207530496614   13.63414762887602    4.76196559832114
C         9.15804826438941   13.21098754055988    4.28001473753221
H         9.09137339208031   12.79287763408189    3.28534278007578
C         8.01908863341599   13.31383695787843    5.06101767229430
H         7.06999002379343   12.97239110838924    4.67280219950817
C         8.08598280315004   13.85190653911918    6.33356814443969
H         7.19579318058862   13.92644554484411    6.94018859659389
C        11.63022178360337   13.49530843733189    3.93149213052641
H        12.38516436707821   14.21699825437099    4.23583636486126
H        11.40652364198482   13.63580228249830    2.87600323596474
H        12.05130349169350   12.49745155032058    4.05771895113426
C         8.79739701720369   16.67778914046323    8.26161468348054
C         8.45818914637467   17.21695192610202    7.02663181650959
H         8.57803873451845   16.62700132945272    6.12629588640853
C         7.94167176022333   18.50129097744870    6.93381613389267
C         7.75478945409498   19.23604569078650    8.09800570799971
H         7.34430321812927   20.23373621302658    8.03486770991879
C         8.08738509059816   18.70450696858073    9.33220261695682
H         7.93636637527496   19.28492000828855   10.22984795452212
C         8.62028926769593   17.43441736128555    9.41815010785733
H         8.88817538429744   17.01750497788113   10.37882090668013
C         7.61181715493264   19.09385641094542    5.59644721187238
H         7.46351963250735   18.31666269915369    4.84947718972862
H         8.43016020629633   19.73491850033971    5.26499209501208
H         6.71323542953516   19.70470484709715    5.65402610919147

