37
CSD_code = WEMREL | q = 1 | S = 0 | Stoichiometry = C6H20CoN6O4(1+) | MND = 6
Co       -0.00003622089116    0.00001268359761    0.00001227454200
O        -0.10189402838424    2.54011580533022    0.65829344989215
O        -1.43384144263477    1.32186472707870    1.84470143484133
N        -1.89704186294741   -0.44144852706788   -0.64393059362178
N         0.10191608506251    1.08979271207131   -1.66280451929434
N        -0.61898612473344    1.46450733839151    0.94811850735378
C        -2.26737513513967    0.62098792252952   -1.59695627133608
C        -1.07567465181197    0.85347187730672   -2.51588309644105
C        -2.98913450301474   -0.71317474323627    0.29875265275091
H        -1.78708808598712   -1.30364904125621   -1.18683972577049
H        -2.49970863274135    1.52992116898559   -1.03553278510468
H        -3.15484515118264    0.33992463579955   -2.17368972546687
H        -1.26329405759237    1.69484665180474   -3.18823483357924
H        -0.89660621107505   -0.03840838772620   -3.12318985653149
H         0.13465846409263    2.07904037441577   -1.38981347064113
H         0.94641026448461    0.89677302313625   -2.20702632879868
H        -2.79993479431976   -1.64477922468035    0.82673997689606
H        -3.08411504454791    0.10048067227949    1.01602326776808
H        -3.93643899868997   -0.81278154262985   -0.23585997462498
N         1.89698430891052    0.44146809099756    0.64397998761257
N        -0.10188074677338   -1.08988112912555    1.66277255074684
N         0.61890240529962   -1.46436668069136   -0.94824918146845
C         2.26739454445070   -0.62104890814301    1.59688700523864
C         2.98906534246935    0.71334583379337   -0.29867626788861
H         1.78701515718799    1.30360060842905    1.18699536456776
C         1.07573880793643   -0.85364170776923    2.51583960341062
H        -0.13469032515135   -2.07911463175956    1.38974742257389
H        -0.94634637126047   -0.89683430290902    2.20702594539232
O         0.10182060822222   -2.54006912310687   -0.65840700520376
O         1.43406636944516   -1.32180732941475   -1.84447479826799
H         2.49972921907524   -1.52992342921075    1.03536948199843
H         3.15487484305070   -0.34002620033772    2.17362825795867
H         2.79980145077496    1.64497805273854   -0.82659095000541
H         3.08409597291054   -0.10025329842417   -1.01600504297946
H         3.93636770592236    0.81298426373847    0.23593862548208
H         1.26340108511141   -1.69508411789709    3.18809379729049
H         0.89668975447206    0.03817588296202    3.12324482070789

