65
CSD_code = WEMWIW | q = 0 | S = 0 | Stoichiometry = C22H36F2FeNP3 | MND = 6
C         7.25826216539713    6.19621488189352    3.91170722358785
C         6.15797666053978    6.10392099412924    4.77288426435052
C         5.45854835870416    7.19925431130170    5.23264305012319
H         4.63081309434749    7.05049019004116    5.90787103888936
C         5.83907012648028    8.46655613659338    4.82207169630844
H         5.30508091543915    9.33307000744304    5.17693165343497
C         6.89860491714342    8.61428337187755    3.94137201641868
H         7.19777734865991    9.58571373307168    3.58086303221468
C         7.57720201713060    7.49688619730381    3.50157302526850
C         7.99122648002288    5.01997285568762    3.45540051373566
C         9.42168616007536    4.89716623013618    3.42588227730645
C        10.34326844934641    5.80928310941516    3.94388294143782
H        10.00485546985078    6.72051060306826    4.41876838409819
C        11.68959529025530    5.53442250646865    3.85808638530582
H        12.41281302736651    6.23555843556090    4.25072018044285
C        12.11610745591665    4.34886472634330    3.26955503489302
H        13.17552016300988    4.13890024550979    3.19857824821208
C        11.19646926330575    3.43285523581533    2.79467971823199
H        11.54400958796289    2.50540798063023    2.36216896834921
C         9.82599000977330    3.66536765801958    2.86597506479452
C         5.22830747396001    1.32099562062946    3.32136070678288
H         4.28380592510894    0.92596312198924    2.94584515882969
H         5.04698950419375    2.27943586765607    3.80703310017079
H         5.63419323392638    0.63760113372527    4.06287902374955
C         6.31787360861946   -0.08726714335874    1.14265969327104
H         6.86208588785915   -0.79668348929465    1.76285202492997
H         6.81246375270434   -0.04312696554438    0.17450787072386
H         5.28397789206373   -0.41207848927240    1.02094127948948
C         5.21719422909669    2.48878935048171    0.86314811378076
H         5.66098636541417    2.74846085475802   -0.09445538866250
H         4.93266448902062    3.41176623319073    1.36798273142736
H         4.32297757445905    1.88773915792028    0.69625070614599
C         7.96737536051819    2.24393341345583    5.73012703015962
H         8.21710374673347    1.65896823157617    6.61488634971964
H         6.88819684640978    2.27569083679870    5.59683252881293
H         8.32743099989098    3.26537284081676    5.85559637967941
C         8.40347746229226   -0.24242582659843    4.38548231809487
H         9.07620567464715   -0.75993246108570    3.70241029020426
H         7.38203057836357   -0.45936614917913    4.08695623652325
H         8.57088127525334   -0.59240942001458    5.40459114841981
C        10.48783844149589    1.44798419164614    4.89154331639157
H        10.86766670305504    2.43966683607882    5.12523673180277
H        11.12555819701938    0.99202194888604    4.13794137446670
H        10.48525905661728    0.83126454193712    5.79159221448878
C        10.50233169421826    3.70781700904041   -0.09260667138253
H        10.50455905546954    3.98347500765369   -1.14830521935658
H        11.11326487324487    2.82010764706209    0.05476522952800
H        10.90792174878990    4.52271184618978    0.50226840641923
C         8.36371582308993    2.31028079603583   -1.05098922252750
H         7.33414609176703    1.96609279686211   -1.01779411694781
H         9.01596029820558    1.43817449501934   -1.01857479212657
H         8.53601925132097    2.86547243552179   -1.97362064510853
C         8.02422289665440    4.94951277216002   -0.00035032591477
H         8.41272601161218    5.69173786519447    0.69719401839745
H         6.94184163450216    4.90032507126537    0.10771178552802
H         8.28128955087188    5.24168229481151   -1.01802812931913
F         5.76314009065639    4.87694297848232    5.19445863277820
F         8.55403772616736    7.67079021675651    2.58576080342342
Fe        8.32391579784133    2.51364960154107    2.36059628269244
H         9.12894269926402    1.38611487510348    1.82966790089781
N         7.38414552749090    3.94177445885469    3.02295165217655
H         6.36870816376517    4.01976529089792    3.04596019639420
P         6.41689903366993    1.56811912058607    1.92895562617814
P         8.77988616452760    1.55406292919196    4.23217323465599
P         8.78570462741849    3.32932684427907    0.42618969681126

