90
CSD_code = WEMXIY | q = 0 | S = 0 | Stoichiometry = C38H43BO3P2PtSi2 | MND = 4
Pt        3.74389133706940    4.67981706611359    2.99201457312176
P         3.57203509904328    6.50452702768459    4.52740492835399
P         2.34416142739044    6.05850394256911    1.62491079715090
Si        5.08520675114980    3.27387086253497    4.30207066232352
Si        3.96377799458632    2.89694353907408    1.48556314053768
O         6.15925995000376    2.21087805302495    3.64067380085367
O         5.32383998312180    1.95596140179844    1.46487235490411
O        11.57889931947854   -2.10525617942928    2.01480047496067
C         2.43260395341334    6.35017407234012    5.95689764185460
H         1.45025384466577    6.02997432035142    5.61522736234858
H         2.82608929955018    5.59086039145086    6.62899863128587
H         2.34688902132995    7.29801070080813    6.48713699097386
C         4.99525681115840    7.34908536153489    5.31433847549353
H         5.74776398022305    7.56837346079690    4.55971591548388
H         4.67815605400547    8.27422644938647    5.79467913714339
H         5.43682092084241    6.68402744379108    6.05279585532931
C         0.90035145271170    5.83612037106515    0.51228411647055
H         1.16236313865805    5.10369613710307   -0.24917394793055
H         0.04580334049822    5.46917899366196    1.07745407021005
H         0.63992213772690    6.77921974962789    0.03302919941002
C         3.49827702158787    6.91576999224051    0.48864320732433
H         3.70944724123515    6.24997739656226   -0.34642676028232
H         3.07257251694038    7.84793830371521    0.11780087814316
H         4.43569559870538    7.11546435872450    1.00675065740494
C         2.82306989710189    7.94093629011835    3.61811269399993
H         2.43105631526269    8.66942896848785    4.33480816748733
H         3.63003960015251    8.42067435735903    3.05670369662778
C         1.73675758980576    7.47647649871187    2.65854446810271
H         1.40734651901786    8.29541877483022    2.01080232469444
H         0.86714660867577    7.12060604591794    3.21991201328233
C         6.12262969870988    4.01387712372849    5.71538026784433
C         7.44061554164454    4.41062631208584    5.53113663695449
H         7.90059787812075    4.25698142603878    4.56606367669469
C         8.16586454071705    4.98173801347777    6.56205384566231
H         9.19248153364366    5.28104874322227    6.40319141434224
C         7.57711921992588    5.16918445876650    7.80174874391223
H         8.14033263738005    5.61430153710070    8.60963291110843
C         6.26436484593663    4.77503352180237    8.00348391471517
H         5.80277692496320    4.90992145962461    8.97217228447557
C         5.54842485322948    4.20564419686204    6.96510987339880
H         4.52819357909667    3.88546767774293    7.12420912713648
C         3.86303924961800    3.37302361740988   -0.36098310421562
C         4.94206644232155    3.97665302887183   -0.99743203469057
H         5.85807514667408    4.12265275373340   -0.44293633334541
C         4.86292972684898    4.37987896889226   -2.31886595399718
H         5.71428345864781    4.84456789749703   -2.79708995552562
C         3.68995832244470    4.18974896686432   -3.03086396998607
H         3.62204646507282    4.50527400831247   -4.06236477720639
C         2.60799020420773    3.58366202155612   -2.41495367001926
H         1.69359504467199    3.42094807405741   -2.96936373775448
C         2.69899904710353    3.18197339004373   -1.09290756452938
H         1.85888508514650    2.69249234065018   -0.62202998866291
C         2.54739944114973    1.68688014045286    1.91347077763759
C         1.22993938768953    2.13177924661509    1.94814915101692
H         1.01733462444638    3.15664700220846    1.67159188335773
C         0.19929720052765    1.29674872438695    2.33718321143357
H        -0.81968950233473    1.65966644155304    2.35195273920900
C         0.47387035517113   -0.00563089834799    2.71885061093429
H        -0.32740048517763   -0.66035435818108    3.03097225949250
C         1.78074038296486   -0.46173649579910    2.70604781499908
H         2.00135515029442   -1.47459976431458    3.01228167142111
C         2.80353676940909    0.37870279980668    2.30577223795951
H         3.82391715250155    0.02297014414003    2.30085260011711
C         3.70802176988708    2.20987101671994    5.10980403737994
C         2.38881966565615    2.64343265756765    5.01138257242173
H         2.17797183716053    3.58993803354951    4.49967560734901
C         1.34728738084685    1.89833156183808    5.52982791775188
H         0.32820773710694    2.24816468755160    5.44117029237682
C         1.61027432490666    0.69019268076853    6.15431832786644
H         0.79870789513573    0.09951315114730    6.55487741141795
C         2.91492373111968    0.23949374458020    6.25630262036006
H         3.12193423402119   -0.70575252385083    6.73851665420559
C         3.95230366417107    0.99669303326961    5.74004550760481
H         4.97028404276499    0.64263121434699    5.81679502282222
C         7.42822543275073    0.69677367737114    2.06810029357546
C         8.41810956858104    0.40877696244321    3.00925969066646
H         8.34702748541911    0.86040906837765    3.98788828295543
C         9.46825552612657   -0.43052734529436    2.70281621402341
H        10.23628208238844   -0.65292289991666    3.42944431601438
C         9.56823866819911   -1.01817560220141    1.43929131668036
C         8.58197562367025   -0.73851329360926    0.49228802713861
H         8.62739110565132   -1.17427393332843   -0.49418494437644
C         7.53549774593141    0.10466267093141    0.80841447656313
H         6.77429982679135    0.32308627189712    0.07345916303792
C        10.72509282425620   -1.90722936415259    1.17694380749729
C        10.79878128615885   -2.56068372058999   -0.18390622352994
H        10.85522086200436   -1.80104745838042   -0.96035556826741
H        11.68481858191286   -3.18886681241010   -0.23108400460766
H         9.91454256357162   -3.17046050088742   -0.35477029747199
B         6.22667987863517    1.66952634881480    2.41231738948991

