73
CSD_code = WENBIB | q = 0 | S = 0 | Stoichiometry = C37H25F6IrN2O2 | MND = 6
Ir       11.46458053841103    3.53660002521475   -9.70880333312043
F        13.43012993870803   -1.12503607565971  -14.42532106813558
F        14.38139273854821   -1.94353992307424  -12.67803089140251
F        15.29870421303902   -0.31299879624601  -13.73827806546382
F        11.30507160062961    8.64260203457156   -5.21187413454187
F         9.37257836739042    9.01325019274685   -6.07719259056613
F         9.57982995800989    7.58179156517391   -4.48597593851644
O         9.73914637517171    2.23329536274272   -9.28488746183709
O        10.12627386366604    4.40966820730136  -11.22477257622089
N        12.15325864239361    2.10422955808933  -10.89516569424549
N        10.89342431146373    4.98022946465788   -8.47354317956821
C        11.97734348409741    2.08970421748716  -12.21353896970623
H        11.37153242917268    2.88572578466815  -12.62395558404732
C        12.53917919436300    1.13960517585655  -13.04185043036534
H        12.35792422570541    1.14734515417301  -14.10363487168972
C        13.37889007660804    0.19240829406293  -12.45805590439977
C        13.57465128669544    0.19835023919533  -11.08966985654389
H        14.27168558844211   -0.49063891941074  -10.64395864262345
C        12.89921788307642    1.13448899793995  -10.29872154133354
C        13.02871690042621    1.29013375641005   -8.86496319187023
C        12.62512536287604    2.54888904578913   -8.40110110112080
C        12.94474139362049    2.91058518927643   -7.08095463469504
H        12.68344326137979    3.89495215656286   -6.71793795502813
C        13.62045209538010    2.05400386107638   -6.25667750193942
H        13.91239282300313    2.36539826016114   -5.26335077876817
C        13.89706362643496    0.72850476996331   -6.65416687837447
C        14.46653932949176   -0.19472079928176   -5.75475987270923
H        14.75058869187647    0.15194215839783   -4.77149886060983
C        14.62877097765415   -1.50667473717633   -6.10379505678447
H        15.06409632133361   -2.21118552497940   -5.41101640360823
C        14.18024214264531   -1.94840125582004   -7.35419966045308
H        14.24196066293906   -2.99832612100058   -7.60022479616640
C        13.65049361421963   -1.06666306112835   -8.25952709960277
H        13.25121519886063   -1.44848964639999   -9.18540611335843
C        13.54725011638836    0.30789211169753   -7.96552827231495
C        14.11317832702493   -0.79675615269361  -13.31904871967653
C         9.95026955394643    4.82884305043304   -7.54803273427704
H         9.43206584637675    3.87987769235096   -7.54388329142556
C         9.64066391272504    5.79919490900737   -6.61650051320399
H         8.86118135082870    5.64495927054292   -5.88929089446006
C        10.40880146563635    6.96190017914020   -6.61926590893911
C        11.38809348256050    7.13612451891383   -7.58000800462239
H        12.02398332104053    8.00458409586704   -7.54706842418999
C        11.58728981956029    6.14846305496333   -8.55063841827900
C        12.60115542393837    6.16267880722407   -9.58429633964627
C        12.89434341746719    4.89278360198525  -10.09743292692696
C        14.03162117349964    4.74551047832260  -10.91018369722063
H        14.30200131077737    3.76580857924169  -11.27909984078450
C        14.82972028908942    5.81460675467483  -11.21066722083519
H        15.73336579716057    5.67828694253580  -11.78835551368436
C        14.46500742844461    7.12426014942807  -10.83201588152265
C        15.21147595108735    8.23961640693091  -11.26150206283349
H        16.11203712055359    8.06793682692548  -11.83349286958156
C        14.79221378711653    9.51225987448863  -10.98936148550159
H        15.36616574121524   10.36411252942458  -11.32211006093680
C        13.58151175259070    9.71113432435002  -10.31497337474785
H        13.21577945025754   10.71647560988514  -10.16565472748778
C        12.85117052056023    8.64511859313249   -9.85934357793574
H        11.89014327089532    8.82666311006874   -9.40521310867151
C        13.29646782598119    7.32134664252710  -10.04833950129019
C        10.17099265439485    8.03878400558704   -5.59807534957492
C         8.61952175806949    2.22828035235468   -9.85444898794547
C         8.18832281348507    3.07746498588770  -10.87713433712315
H         7.18030604517548    2.93601906484155  -11.23688086168048
C         8.93841335042105    4.09096953051162  -11.47989476540954
C         7.61727301255241    1.19595470270732   -9.37136145084887
H         8.06100492691395    0.59512979721658   -8.58126503142724
H         7.32445966281152    0.54842046272842  -10.19505737597137
H         6.72450465154456    1.68997082140075   -8.99310545666416
C         8.24364065322667    4.88181386206878  -12.57316984585106
H         8.92016504644898    5.63659455306631  -12.96656870759439
H         7.35555551146626    5.36706155275676  -12.17402401030562
H         7.93552533903802    4.21662573613936  -13.37739580920201

