54
CSD_code = WENCIC | q = 0 | S = 0 | Stoichiometry = C17H30Cl2N4Ti | MND = 6
Ti       -9.02919938306193   -1.51541090415490  -11.63743364238137
N       -10.36388557255411   -0.84065211252187  -12.45696494060140
N        -7.55906729384794   -1.35551699491764  -13.30163083110916
N        -9.17549129305482   -3.53493348535543  -12.57495647135259
N        -7.10910967430946   -2.69627870993122  -10.84932643075927
C        -5.98202149597051   -2.52142948441796  -11.77092692555641
C        -6.22228147964493   -1.32460597162165  -12.69811161848912
C        -7.69685824279522   -2.46312543984358  -14.25648395345167
C        -8.98498112707329   -3.25097019576116  -13.99648854099635
C        -8.21502527826977   -4.53584473677949  -12.08895800328058
C        -7.56297419937206   -4.08411089878366  -10.77879527084741
C       -11.47120040743427   -0.13654144966250  -12.70681772808556
C       -12.01069181548348    0.75510756715295  -11.72888999345960
C       -13.16794831644349    1.45984012384132  -11.98798102255013
C       -13.84051729058426    1.34158876652252  -13.19280876452189
C       -13.32605851368176    0.49779894331573  -14.15824107618374
C       -12.17101919604513   -0.23201451044939  -13.94443319140075
C       -11.31547125602541    0.95022702911132  -10.41721380832982
C       -11.68629544206933   -1.12488252536587  -15.05452435098921
C        -7.81222940340605   -0.07255434606364  -13.96349943742088
C       -10.54769756358182   -4.00108448959660  -12.35499118494608
C        -6.74133327938361   -2.24297321048058   -9.50794172303012
Cl       -8.07737482973775    0.33134040359670  -10.73780952524706
Cl      -10.02497677099797   -2.32027747137158   -9.76313525779321
H        -5.82621312228492   -3.43380574842873  -12.35545147828181
H        -5.04898806704273   -2.34482708684817  -11.21959316673582
H        -5.44094256266300   -1.29533523211179  -13.47653574711379
H        -6.15984106207500   -0.40881675998325  -12.10245085418200
H        -7.72216650029414   -2.08613268336794  -15.28761028112889
H        -6.82786168774316   -3.12452959495455  -14.18907240156540
H        -9.83005743179289   -2.63711795203985  -14.30657287932221
H        -8.97916818520634   -4.18007719177223  -14.59360876875116
H        -8.71427119884279   -5.49771392232361  -11.91641423171552
H        -7.44951126564023   -4.71396248160237  -12.85055096644264
H        -8.30877328391035   -4.13875901664435   -9.98019796400661
H        -6.73390063110340   -4.77004032011761  -10.52859223293119
H       -13.55436624679034    2.12341446128059  -11.22591313003800
H       -14.74580335602968    1.90059952993613  -13.37658904940147
H       -13.83572153227775    0.40136902039347  -15.10840376709037
H       -11.96945338457671    1.45560690193619   -9.70914985713245
H       -11.01003714250304   -0.00878464469131   -9.99488611030476
H       -10.42011501867282    1.56033903533973  -10.55524777788753
H       -12.24847952495524   -0.92521627534930  -15.96475406838116
H       -11.83092231048981   -2.17728961373970  -14.79973496816602
H       -10.63013197365873   -0.94980016165369  -15.26574940176511
H        -8.81760458228525   -0.07163121805349  -14.38402168898133
H        -7.07418055617367    0.11338378114539  -14.75787119023943
H        -7.76259060771751    0.73105600803645  -13.22655214722827
H       -10.67608885172202   -4.27649826118443  -11.30815643727628
H       -10.77565685232286   -4.86833489320794  -12.99260546988139
H       -11.24340742338956   -3.18608127597522  -12.56882084390715
H        -7.61863921740108   -2.26938688475837   -8.86062168129476
H        -6.38583193704928   -1.21448491553601   -9.55347704962254
H        -5.95626535854537   -2.88043850020563   -9.07433069645005

