57
CSD_code = WENDEZ | q = 0 | S = 0 | Stoichiometry = C18H32Cl2N4Ti | MND = 6
Ti       13.70551573388334   -0.51966999226663    8.16412113337065
Cl       14.37120021430339    1.34268715276610    9.17749872557923
Cl       14.95460068179671   -1.99318459873056    9.26278419972212
N        12.14234266590189   -0.77927339935135    8.71458347497252
N        13.69989637458116   -1.74019425654632    6.34658514908819
N        13.29891823902810    0.53305340924241    6.28796990435741
N        15.41922946849803   -0.25290753507503    6.77957421901320
C        15.12809862439214   -1.52119712640216    6.15328933422566
C        13.28442172886203   -3.09602203540198    6.03420828813564
C        12.96388695594744   -0.71584137496425    5.62715726941543
C        12.44709972349070    1.64737477702960    5.91225259800937
C        14.71750953164258    0.80628390554692    6.09301888404814
C        16.82046968593098    0.00107391261047    7.04129732629266
C        10.94402067693983   -0.97442621497797    9.26109205721141
C        10.50289108021611   -2.28573274260325    9.58470784319156
C         9.25437202384967   -2.46407100798538   10.14638827619660
C         8.41847899978117   -1.38660047823832   10.39177838433855
C         8.84481545467041   -0.10270223452756   10.09226695064376
C        10.08462513786836    0.12484785285343    9.52898247646306
C        11.46877124465304   -3.42762011014256    9.37718517027049
C        12.17428582532241   -3.73030383949225   10.70271865900112
C        10.80607174373802   -4.68149860232054    8.80742651942537
C        10.61052347241160    1.51508509769221    9.26304812668483
C         9.56923183717842    2.44383115885098    8.63932606227337
C        11.15852915563588    2.09868371576226   10.56898637909265
H        15.68112320181319   -2.31272060223468    6.67084442299564
H        15.39196200191531   -1.52896801157630    5.06516063668520
H        12.21466063458981   -3.19691113349870    6.21725383289475
H        13.81433306458619   -3.78668433648512    6.69071787032266
H        13.49879370801169   -3.35317772181939    4.98660322063806
H        13.23517614361568   -0.69598988178278    4.54086358451300
H        11.88707702455392   -0.90308494525316    5.73152670964109
H        12.70422871562626    2.51023107586531    6.52719262545020
H        12.56782389897524    1.90840621592213    4.85070667010544
H        11.40612798154063    1.38562245072816    6.10187372723342
H        14.96205867244318    1.76413649984344    6.56517147080152
H        14.97233692595416    0.84905975491284    5.00356395378298
H        16.90794492556515    0.92826435637053    7.60824732851632
H        17.21459355142953   -0.81028878191662    7.65377408026199
H        17.40986778457719    0.08080388939539    6.11634374334098
H         8.92210901964607   -3.45827706131888   10.40830796393524
H         7.44458766496551   -1.54538646198841   10.83181727992058
H         8.19543741545839    0.73227051710511   10.31268358094845
H        12.23952564568686   -3.07327389936544    8.67373807613970
H        12.90344573672799   -4.52730458810756   10.57197993607956
H        12.69664684382938   -2.83677293816201   11.04376289684795
H        11.45446900650752   -4.02879057528818   11.46245983888172
H        11.56361785247837   -5.41166215904782    8.52831285561761
H        10.15165253284831   -5.14343423098815    9.54240008023887
H        10.21382129599057   -4.43884867541439    7.92652633225784
H        11.46267000899280    1.41039884799014    8.57215859727062
H        10.03810263967084    3.37427489086992    8.32415587129339
H         8.78826095490389    2.68872535353159    9.35479115323969
H         9.10482055347435    1.97598347516664    7.77273866630110
H        11.57322521895164    3.09009537029836   10.39817412800656
H        11.95115167143207    1.45288578109405   10.94611067713162
H        10.37314142271169    2.16684209182818   11.31929077768530

