53
CSD_code = WENGUU | q = 0 | S = 0 | Stoichiometry = C24H23ClN4Pt | MND = 4
Pt        6.23846288192890    9.28689369782035    5.29419315017486
Cl        7.52690087706950    9.95730050643723    3.49609906244056
N         5.41035201907113   11.03075231305217    5.74662320493378
N         5.47112457083987   12.22574545615601    5.28537668559552
N         4.70882301515534   12.99416114165206    6.03821699149658
N         6.72142571497597    7.36468870805288    5.32836058557872
C         5.18658912343262    8.71859440773733    6.81618828987449
C         5.24512420263800    7.37562904958585    7.20285813944816
C         4.48452848429422    6.99011111220476    8.32133290206814
C         3.72326747682622    7.96461017685224    8.96257355195931
H         3.13783745709125    7.66160489751628    9.82022922647288
C         3.66194057543929    9.30250136075170    8.58252235984774
C         4.42304187268035    9.68127679395571    7.47883266455974
C         4.44261504085699    5.59563890317896    8.87080402627739
H         5.43832721819917    5.26606382851687    9.16532691900733
H         4.04455255887559    4.90064922765331    8.13206687871363
H         3.80129202588267    5.55648660597113    9.74862079693678
C         2.81452871105441   10.28062401661677    9.33474107297917
H         3.43475404340814   11.07043997638136    9.75790255163271
H         2.27999043657221    9.78884477371192   10.14337018984002
H         2.08802685480731   10.74256205491770    8.66686426193739
C         4.57990078866784   10.98139248668663    6.84934426096434
C         4.12905024324677   12.26966130034540    7.02836603923316
H         3.49144078376052   12.71554715754592    7.76011919086488
C         4.57835487631769   14.38021471717808    5.79479562053970
C         3.31454270498824   14.93109591879586    5.58252802592971
C         3.22486102443268   16.29735242081378    5.35670517479761
H         2.25149887552184   16.73517380647571    5.18938353610305
C         4.35072492101155   17.10627042127794    5.32803064685146
C         5.59567111025696   16.52320967717315    5.52459555593135
H         6.48018105223446   17.14234589743909    5.49454344793340
C         5.73523634309792   15.16444646502596    5.75503084329438
C         2.07247634840377   14.09060868634186    5.57669261270128
H         1.31398897271323   14.55429272696715    4.95100056879356
H         2.26876951419359   13.09015382820521    5.19739347416409
H         1.66215871631884   14.00159589555497    6.58309418288372
C         4.22744533136075   18.58151243417248    5.10480331222257
H         4.15346153780348   19.09587762650529    6.06350688402373
H         3.33621915430384   18.81458190573760    4.52759224188024
H         5.09937214937475   18.96812634478463    4.58312140125215
C         7.08513278079622   14.55368793871646    5.96070278472108
H         7.85060314126384   15.32385068790929    5.99213269326811
H         7.11959941543158   13.98996360816414    6.89279753836934
H         7.31347214580521   13.86333533089182    5.15031723316925
C         6.13246152622913    6.61736713296579    6.31585804002319
C         6.41095695132786    5.25326955945831    6.38634262545071
H         5.95860857742825    4.64809510141899    7.14995650768979
C         7.26731130888446    4.65966806452643    5.47630023585694
H         7.47543220526598    3.60195642511756    5.53879897055984
C         7.84960377011694    5.44000898911554    4.48993456033976
H         8.52234987795141    5.01852477254073    3.76111458329201
C         7.54474142412002    6.78814822490371    4.45840144941382
H         7.97146726627102    7.44538543852151    3.70909224570928

