69
CSD_code = WENHOP | q = 1 | S = 0 | Stoichiometry = C29H31ClN7Pt(1+) | MND = 4
Pt        3.31754322692384  -12.53145520770528  -24.60308707169865
Cl        1.75957149772583  -13.64047932672620  -25.74990844808934
N         4.69256896049382  -11.55607792594397  -23.56415865710924
N         2.20668330079880   -8.97392102089743  -23.00839150822764
N         1.00819771358689   -9.16412429242232  -23.48753304859107
N         1.02411820033059  -10.31563675229945  -24.11169554375866
N         6.95965514632733  -14.28747785199967  -24.30726434366130
N         6.53091076255753  -15.24495786729704  -25.08285937066492
N         5.28598963835381  -14.96683250809874  -25.38166311148956
C         5.91079302229841  -12.11131137613477  -23.40127831752886
C         6.88836259148461  -11.45523815156404  -22.66077216291481
H         7.86268662454949  -11.89003830696221  -22.51659175871931
C         6.58510169629899  -10.21970516101974  -22.10556162328132
H         7.33049696862606   -9.69326731134342  -21.53131792899235
C         5.32841705837116   -9.65770279501355  -22.28376907645890
H         5.09756933612295   -8.69846101615384  -21.85282983374683
C         4.38322713423017  -10.35950515663145  -23.02433950395174
C         3.01103113093579  -10.01854536875251  -23.32777554023316
C         2.22716082271620  -10.91707254215620  -24.07576252413743
C         2.49239267964651   -7.77894448932666  -22.26960204825525
H         1.58309786635710   -7.18100880381570  -22.24471215443878
H         3.28673628920426   -7.21179300271284  -22.75640234488819
H         2.79044399336353   -8.02490348482245  -21.24963036228110
C        -0.14276478990857  -10.84869606791583  -24.71772898474188
C        -0.63983061434216  -10.25233280404861  -25.87370491371925
C        -1.75967983439688  -10.81603175130212  -26.46416197262485
H        -2.15447394645745  -10.37265975721950  -27.36589485823192
C        -2.37485615657815  -11.93812010310311  -25.92728566579284
C        -1.85345687822874  -12.50040449314304  -24.76810226710135
H        -2.32789654660872  -13.37301850703838  -24.34536449512407
C        -0.73485105504523  -11.97522126166284  -24.14500192880005
C         0.03816062719672   -9.05474557666612  -26.46466237527732
H        -0.45734582545776   -8.75255215620104  -27.38216414620351
H         1.07936572789292   -9.28241237920956  -26.69528676686099
H         0.01513251926533   -8.21769477404937  -25.76761270620650
C        -3.56876205266784  -12.55165138689361  -26.58512440565402
H        -3.97516657652869  -11.89758930746551  -27.35130406602563
H        -4.34437219375085  -12.76307156456302  -25.85213956118789
H        -3.28719475278598  -13.49528815004970  -27.05138106434445
C        -0.18009537962810  -12.58963003517826  -22.89699894965970
H        -0.83112124209446  -13.38449530343056  -22.54652561941937
H        -0.07967534565017  -11.84732317569415  -22.10511632211624
H         0.80646984356390  -13.02153683227556  -23.09451178173033
C         5.97716228753107  -13.37504873749490  -24.10110456101577
C         4.84869429290857  -13.83069214961668  -24.80821779205566
C         8.30523921562978  -14.32486455762544  -23.81399561453514
H         8.31007203149185  -14.35337687719319  -22.72366087497794
H         8.86082154758791  -13.45228989554058  -24.15980641854133
H         8.77402838695826  -15.22746660949248  -24.20192777559419
C         4.53307975405496  -15.78574190959454  -26.26171904678715
C         4.17127452728284  -15.26786453203334  -27.50568560378874
C         3.40736107857347  -16.06844768024266  -28.33876967265552
H         3.11323128512576  -15.68630463509499  -29.30449030040425
C         3.00602951347123  -17.34234801461927  -27.95919684203999
C         3.39295270231357  -17.82514352215354  -26.71553108186425
H         3.08467042953656  -18.81409121176827  -26.41132305882464
C         4.15885050276858  -17.06313978328943  -25.84935935886161
C         4.60021777622327  -13.89719209818783  -27.93083169557537
H         4.32647887368412  -13.72152469607715  -28.96657613914817
H         5.67866136210905  -13.77468718289524  -27.83039025949177
H         4.10619024704062  -13.13597575105682  -27.31653743848057
C         2.19227703666338  -18.19133691102661  -28.88204821150808
H         1.51783764542988  -18.83517718247963  -28.32349231330652
H         2.85066050593938  -18.82802627890859  -29.47341936476368
H         1.61301143404247  -17.57728102207084  -29.56619894129115
C         4.55648214330694  -17.57515445439421  -24.49927700250995
H         5.64082652894389  -17.64457963372837  -24.41998052510324
H         4.13477643561013  -18.56089208642621  -24.32857516592960
H         4.19617126669976  -16.90691748008049  -23.71670580699324

