59
CSD_code = WENLIK | q = 0 | S = 0 | Stoichiometry = C26H26Cl2O2P2Pt | MND = 4
Pt        1.90272984229081    2.75336917440241    4.27418250809477
P         2.31595980663281    0.93324571979429    2.95615015453725
P         4.00696419047000    3.24049285227372    5.00126269578939
Cl       -0.28281135931825    2.25405937150509    3.60123171170961
Cl        1.14601854763182    4.54599170048114    5.51570752687244
O         0.90153597998759   -0.29205577455298    4.86424499028388
O         3.79655329683782    5.24745275327940    6.78339472325525
C         1.25515707040733   -0.49840276136171    3.52983627930935
C         4.37925540974198    4.98671222656774    5.55363444892019
C         1.88028988364990    1.17720010612088    1.21753583077720
C         1.77906766125841    0.10037528424573    0.34178378511656
C         1.42063799594444    0.32054508093958   -0.97537614596729
C         1.16465515978733    1.60824780899322   -1.42139735145941
C         1.26661455648775    2.68141192574331   -0.55117506145099
C         1.62391305255907    2.46617956316838    0.76724918669861
C         3.96747498278798    0.17054779199805    2.89865917472380
C         4.42505814766308   -0.45353230544693    4.05646116153081
C         5.67919942909665   -1.03152310167923    4.08516451854155
C         6.48498322003864   -0.99226741553740    2.95817296993231
C         6.03613616663558   -0.36591279396729    1.80782336847618
C         4.78414602425462    0.22190392520625    1.77629889890508
C         4.43537142823357    2.25839933944834    6.45836016716156
C         5.60856681448562    2.44283479608976    7.18319792049244
C         5.85082657343030    1.66678204662861    8.30207388257291
C         4.92676763315800    0.71684237354504    8.70845584960361
C         3.74584853398662    0.54887321256406    8.00384154130648
C         3.49883387353669    1.32091713755871    6.88386906110876
C         5.29193499904273    3.01072331357727    3.73711554945357
C         6.50723455949435    2.37252095251744    3.94011289496096
C         7.42405445320867    2.29931778528187    2.90549305750841
C         7.13435073743490    2.85589182514335    1.67134614191018
C         5.91463778788469    3.47980292522462    1.45972603129609
C         4.99758224370429    3.55470367367087    2.48917798614819
H         0.27589806256373    0.45923062450058    4.87668763933918
H         2.82428927431356    5.17964794336404    6.66224828402087
H         0.37448568168952   -0.57169666377737    2.87676310099372
H         1.82888534346756   -1.42988009061959    3.48414577520106
H         4.03635109955648    5.67564391565072    4.76531878935636
H         5.46543374309677    5.09340921940790    5.66519234350106
H         1.98274015807180   -0.90086158735750    0.69715440334770
H         1.33585379289958   -0.51347873453373   -1.65643538255647
H         0.87910357792115    1.77359848697528   -2.44960975934675
H         1.05956838464856    3.68232404373350   -0.89949394765703
H         1.68490099596114    3.29143528271123    1.46961047023472
H         3.78683259533408   -0.48848846192922    4.92834970048083
H         6.02785963560887   -1.51557266956285    4.98552428908667
H         7.46304108227547   -1.44944296491383    2.97718646419866
H         6.66387536285241   -0.33379662383589    0.92967190044662
H         4.43894936568945    0.71657130282288    0.87999344676135
H         6.32058756522938    3.19883317261316    6.88571456197567
H         6.76117560761200    1.80895791260112    8.86583987847104
H         5.12298422883842    0.11681236632953    9.58473188302759
H         3.01584791007169   -0.17706011029930    8.32896369761279
H         2.56631920142263    1.21192533293124    6.33360992513867
H         6.73042154255722    1.92221961564382    4.89568609066744
H         8.37026141025170    1.80380071787733    3.06489358766649
H         7.85632641532349    2.79780678614319    0.87055878291324
H         5.68242331868055    3.90424453365196    0.49421323834449
H         4.03493594158318    4.03176613645177    2.34196537869513

