72
CSD_code = WENPOU | q = 1 | S = 0 | Stoichiometry = C27H35N4O4SZn(1+) | MND = 6
Zn        1.13311437647279    2.70284136884815    6.40534342094874
O         0.06863649517038    2.64585464773544    4.29482807539103
N         0.91454918280627    0.60437817521566    5.98965872852186
N         0.44121161127517    4.70102168278424    6.10607399946237
N         2.96450079599076    2.10036930645560    7.48315527702904
N         2.81878217081896    3.30432868798471    5.01903123660125
C         4.20904234545088    2.29594783745175    6.73592642309950
C         2.94223060516607    0.85864543158336    8.20667019382457
C         3.32575825380671    0.84713798681090    9.53945019038768
C         3.31936289873727   -0.32939704344810   10.26508530119814
C         2.93690882552108   -1.50862412736851    9.65204800755695
C         2.54194825419089   -1.49648793778386    8.32722763249389
C         2.53676496509708   -0.32095317121953    7.58778109685536
C         2.03358080210188   -0.33496985792208    6.16970917540283
C         0.21206987742915    0.34309863636642    4.73001357890312
C        -0.74194711337544    1.48351517219400    4.40211460707201
C         4.03933119241191    3.49481589216335    5.81347586321940
C         2.63462193701088    4.34967821098020    4.05301288042247
C         3.11371971091016    4.16086835099698    2.76226804544582
C         2.99233293245422    5.15113837404323    1.80444938308692
C         2.39208347585025    6.35234642515864    2.13784147813748
C         1.89161185932410    6.53552146028777    3.41420397584832
C         1.99555856462298    5.54443014020365    4.38430310997040
C         1.38153407384512    5.76652053960287    5.73894311497579
C        -0.79187210935545    4.68673654309509    5.31541521296501
C        -0.61003667819179    3.86085934366148    4.03465044202786
H         0.26829052864371    0.43996769933372    6.76579640328647
H         0.18876099134424    4.84846344049211    7.08143120425803
H         2.89348979607841    2.83589939189281    8.18733478569599
H         2.94274307816052    2.44152087210423    4.49090683346831
S        -0.21723887647837    2.41778430251085    8.58023580289961
O         0.88157459147349    3.41204056114456    8.53286930550439
O        -0.81822528654270    2.43830831469923    7.22014002058698
O         0.21391655193654    1.09294040052962    8.94322909251311
C        -1.42133194000268    3.01545188445242    9.73784041567540
C        -2.19162277748782    4.11529050825195    9.41898547643474
C        -3.10341704616029    4.59821785377313   10.34187787000706
C        -3.24500411518156    3.98914406370950   11.58423961941784
C        -2.45574710179234    2.88073183774544   11.88326181853003
C        -1.54487799535160    2.39275005718863   10.96468966098589
C        -4.23288046177586    4.49826191269036   12.58438632171935
H         5.06333691124569    2.45461468577133    7.40454341619026
H         4.40791050422855    1.39723105431867    6.14606288920486
H         3.60727526274087    1.77509675805687   10.01685159510975
H         3.60779482593869   -0.32359308607777   11.30458413273874
H         2.92738452784300   -2.43295140416091   10.20789211063884
H         2.22101414753154   -2.41571486244197    7.85961956559684
H         1.70620995202767   -1.35426002765551    5.92568506072348
H         2.82697379139332   -0.06580804841982    5.46300989027322
H        -0.33964349536927   -0.60332701049593    4.76290983992846
H         0.96067369238484    0.28678667023441    3.93352632993078
H        -1.48167090685683    1.59717828126565    5.19945424957321
H        -1.24433528584369    1.29233811688256    3.44548165873126
H         4.92133434215572    3.60084954967754    5.16933450423538
H         3.93243457943199    4.40730737378126    6.40258817995979
H         3.58862101880525    3.22420267655695    2.50552249641348
H         3.37153589489874    4.98779502524221    0.80821499850975
H         2.30332072640400    7.13868624704786    1.40550566850418
H         1.40566898396230    7.46677895835985    3.66452954372236
H         0.87117978695972    6.73934154833112    5.74004333740163
H         2.15838019354732    5.79699027007767    6.50789954694290
H        -1.11167586091915    5.70050432259548    5.04839647638147
H        -1.56077594032490    4.20556388495178    5.92087131346749
H         0.01210435918126    4.40480412209703    3.31837500948384
H        -1.58623164413591    3.67041435666005    3.57941364081399
H        -2.07991015150056    4.57883678417555    8.45058362657084
H        -3.71101153718556    5.45619409099774   10.09575479387406
H        -2.56027880497615    2.39945192514541   12.84398380667002
H        -0.92750290351995    1.53294952849259   11.17110872674924
H        -3.76324876371574    4.61694842045392   13.55854163419731
H        -5.04884141234405    3.78537005538292   12.69719563939168
H        -4.65025603640976    5.45232455627288   12.27531123623390

