33
CSD_code = WENQOV | q = 0 | S = 0 | Stoichiometry = C18H9O5Re | MND = 6
Re        1.37459439456097    1.29823377224659    2.46369156586692
C         1.64786351465508   -0.67079548184522    2.38147031557392
O         1.81971093305542   -1.79412922530008    2.32862549024379
C         0.49252476690493    1.29439940106439    4.24030029085223
O        -0.03581712920188    1.35366793427576    5.24459044864761
C         3.12114510195549    1.68719215714852    3.30613401216765
O         4.11478972050095    1.98401210547985    3.77679238930725
C         2.18467428043552    1.66955148274056    0.69812757239812
O         2.64896828325238    1.95900624954864   -0.30068045630689
C        -0.43513533936748    1.27025568561976    1.65232798050440
O        -1.48155308869340    1.31427460316476    1.21150648625750
C         1.05579366256643    3.74974366432149    2.55836338907146
C         0.67820994585644    4.17904419161219    3.93221511717756
C        -0.64591140070016    4.66209780628934    3.94083156279813
C        -1.14167734143628    4.64979580600840    2.57936747357610
C        -0.11921125361466    4.15929647238976    1.74231377777770
C         1.42139200847041    4.17596133700737    5.10151382035714
C         0.83206144854064    4.62314946059546    6.27208578673240
C        -0.48402846846107    5.06675609444743    6.28412958158683
C        -1.23095704393800    5.09641591962984    5.11972975212173
C        -2.35026649954342    5.06858630517775    2.04585737531288
C        -2.52660974200279    5.01610493646618    0.67445005656408
C        -1.50831392795066    4.56511676758171   -0.15545259772087
C        -0.30175844588854    4.13319493664171    0.36914082197511
H         2.44469470808744    3.82446450984837    5.10681393404906
H         1.40332303227063    4.62448649453746    7.18895708434399
H        -0.92360289532452    5.40095496643196    7.21249631966748
H        -2.24772527976105    5.46051127370364    5.12692644230953
H        -3.13580611940072    5.43830011075507    2.68825977268357
H        -3.46208488825917    5.33801694260103    0.24080940511086
H        -1.66034148350551    4.54848398694652   -1.22484402899469
H         0.48059372995375    3.77525427787215   -0.28708901779481
H         1.99816081598249    4.18649505499206    2.21133807578230

