105
CSD_code = WENSUD | q = 0 | S = 0 | Stoichiometry = C30H60Cl4N6O2P2Ti | MND = 6
Ti        2.54718881768947    0.00028892292044    6.97659853140037
Cl        1.91839327926703    0.85326693216507    4.92612222415376
Cl        4.32041206122368    1.48035261220003    7.07664606917801
P         0.44000251134825    1.52047987266249    8.82798333838720
O         1.49251644098988    1.19459405038675    7.79023309168303
N        -0.51859424265906    0.29659140144564    9.38872493090559
N        -0.64734172454568    2.56975895596934    8.10279785461891
N         1.21966619550176    2.11203640126855   10.15906218827006
C        -1.75114566840850   -0.08556822775938    8.71617529955667
C        -2.78205706780533   -0.47753112217700    9.77219344383897
C        -2.24730968529997   -1.63552413776565   10.61076074393756
C        -0.90655282555356   -1.24691389103851   11.22828128974485
C         0.06006135241320   -0.81715796248594   10.12829429328342
C        -0.16949604616448    4.93115997555861    8.60680228656279
C         0.00349970901104    5.21000592444118    7.11456353779196
C         0.46438030137576    3.94563498221781    6.39332803048247
C        -0.51742615505412    2.81185968846196    6.67187683431554
C        -1.11001177694201    3.74349290698516    8.81383736000436
C         2.55852042823587    2.67521596660733   10.08494183683904
C         3.45874549425707    2.01923328514454   11.12761972023497
C         2.86194402851257    2.21436189757563   12.51839020014041
C         1.44784434651577    1.64068961380799   12.55224119237329
C         0.59584374381675    2.27917033574817   11.45361967320252
H        -1.56511845450710   -0.93236537263265    8.04485726370809
H        -2.10306152227052    0.76158521623072    8.12628213749887
H        -3.71349782573238   -0.76195049712586    9.28086245466841
H        -2.98198083657408    0.38167594949424   10.41675660081975
H        -2.10678239647232   -2.50644081952824    9.96810563130958
H        -2.96275932855222   -1.90016485000929   11.39196803752841
H        -0.47900299463577   -2.09053376225580   11.77136071471744
H        -1.05297455057295   -0.42537771285967   11.93315322126157
H         1.02184175834277   -0.50744639351292   10.53920809601092
H         0.24019796290689   -1.66180205809256    9.45116557479648
H        -0.56717887495999    5.81082436084141    9.11711203464901
H         0.80314867779344    4.68861792234290    9.03945577345484
H         0.72679280426556    6.01397140058496    6.96778370653175
H        -0.95180216065707    5.53584389133242    6.69470353890636
H         1.45495147946805    3.64369036112162    6.74941942811360
H         0.53045428328832    4.11499045592660    5.31827992673655
H        -1.51216347935605    3.07052702532701    6.29047730142550
H        -0.18925918781632    1.89060986290676    6.18397700304257
H        -1.20084887641085    3.49496182867325    9.87182346338323
H        -2.10749107887226    3.99327733899764    8.43218324112310
H         2.51181856348304    3.75852636190339   10.27276749444888
H         2.96261017651647    2.50957217663728    9.08283888119953
H         4.45353709218181    2.46199184765436   11.06888849235147
H         3.54275694916512    0.95554883361515   10.89790530090142
H         2.82966932424603    3.28122273415612   12.75715225713976
H         3.48214188520725    1.72033956599200   13.26760239299311
H         0.98027097375095    1.82565729750556   13.52153381738723
H         1.49717950056322    0.56337046681516   12.39349745241223
H        -0.39424012879461    1.82187245924840   11.41849205867892
H         0.48442395880183    3.35236955739286   11.67135493242150
Cl        3.17641821895511   -0.85388875950381    9.02635752621397
Cl        0.77515059073273   -1.48096096605475    6.87582066165960
O         3.60202503844202   -1.19420476211362    6.16336282257068
P         4.65446558834790   -1.52027408854393    5.12557426262156
N         5.61315205510492   -0.29649016311846    4.56475674963587
N         5.74176712707880   -2.56962775331007    5.85071895063280
N         3.87473756900803   -2.11177790800261    3.79448622499505
C         6.84562439123111    0.08572320012209    5.23742151707857
C         5.03455507405369    0.81725372492761    3.82513277054908
C         5.61149709382370   -2.81239881427435    7.28148385123535
C         6.20502216549899   -3.74293234760481    5.13930809734330
C         2.53587122392667   -2.67491881156252    3.86864215895481
C         4.49857513969944   -2.27908162781494    2.49992882236856
C         7.87664700848920    0.47766842138907    4.18148330886892
H         6.65944707887985    0.93253278238686    5.90870855791912
H         7.19751379451445   -0.76141196827588    5.82736525297880
C         6.00127424878561    1.24696067033501    2.72518896629029
H         4.07278919367668    0.50753973108362    3.41417029846279
H         4.85434413374833    1.66187708033697    4.50228468451886
C         4.62990464438899   -3.94656606746960    7.55919428052238
H         6.60619062094580   -3.07099580456012    7.66304487058974
H         5.28294757683157   -1.89145347608817    7.76971122333052
C         5.26478117727644   -4.93096778981779    5.34547132754603
H         6.29616711399629   -3.49393591505183    4.08145504283433
H         7.20244392681186   -3.99264178507404    5.52116893816640
C         1.63571677054617   -2.01900074759954    2.82586734116996
H         2.58254431896746   -3.75824244994105    3.68086614709197
H         2.13175809551469   -2.50918012057423    4.87074120472734
C         3.64663519448352   -1.64067402175489    1.40121011643343
H         5.48866589096899   -1.82179676110534    2.53497491610436
H         4.61000208609429   -3.35229582951907    2.28225730256779
C         7.34197376219699    1.63561835262649    3.34280538682510
H         8.80803003026216    0.76212331263442    4.67290894528427
H         8.07668373743452   -0.38155020926408    3.53696674570368
H         5.57377886621435    2.09055018489304    2.18201815667363
H         6.14779788171248    0.42539798813125    2.02036189996064
C         5.09133439164783   -5.21049685086522    6.83752978976179
H         3.63936618361396   -3.64472432788392    7.20292309980453
H         4.56355006130117   -4.11643166997141    8.63414420478160
H         5.66288509493307   -5.81030167220194    4.83491963678750
H         4.29223087160102   -4.68850375867439    4.91256951613540
C         2.23250685396169   -2.21426528745962    1.43510580341876
H         0.64091166904510   -2.46172279574257    2.88462038975388
H         1.55175115994411   -0.95529499592061    3.05554141479502
H         4.11420079022787   -1.82574875533377    0.43193344802328
H         3.59734925121587   -0.56333588672267    1.55984311036903
H         7.20139632200241    2.50657311620510    3.98539932002910
H         8.05748899508470    1.90022113122070    2.56164466570531
H         4.36818781329701   -6.01470123487403    6.98369988230862
H         6.04655917031043   -5.53629895401305    7.25758340254271
H         2.26472148997647   -3.28114036020644    1.19641018699498
H         1.61234424167645   -1.72026803143284    0.68585059782570

