58
CSD_code = WENTIU | q = 0 | S = 0 | Stoichiometry = C15H12CoN15O15 | MND = 6
Co        2.01385927476358   -4.14678834126486   11.21365187735689
O         1.11318293316227   -3.05197544226470    9.92472372151502
N         3.09275078559192   -4.61047505845715    9.77674948930061
H         3.89739833642230   -5.23449024645705    9.70862304382857
C         2.80497258590510   -4.00282478091447    8.66431749461238
N         1.72761345998735   -3.15640969481753    8.73449950094112
C         1.23189192813943   -2.42963964798193    7.71542511077851
O         0.44205646944155   -1.08078226985769    5.46393136930600
C         1.86882354006458   -2.54784846324500    6.44722624152395
N         0.18348524370417   -1.65989547875236    7.97945233188810
H        -0.15170623766203   -1.66603589711520    8.93259331173092
H        -0.21014490210898   -1.10193198105230    7.22897649094057
O         1.99288766171247   -1.96939517907643    4.27012791963507
O         5.08996706075378   -4.98725879583011    6.10893695894681
N         1.40684005361405   -1.82083130346552    5.31753332668911
C         2.96833280974254   -3.38567837180383    6.31217152249651
H         3.45523971373019   -3.47191816337118    5.34948305546664
N         4.59232828486286   -4.93595067933171    7.21047108445202
C         3.44998693095922   -4.10473082801395    7.38616541367434
O         5.01125208968574   -5.54515991455111    8.18339541198986
O         3.24209342166368   -2.75467310954659   11.67905478646884
N         2.96238659589089   -5.13222224254596   12.47089032593671
H         2.87019213636682   -6.09905845218384   12.78396183688904
C         3.80858812752387   -4.43305328967010   13.16698542145399
N         3.95703841981997   -3.13437737995453   12.75075947938311
O         6.42409973562805   -0.54787173603138   14.72106089399419
C         4.75093050398840   -2.21220099172213   13.32630521478992
N         4.75140088790208   -0.99915783904064   12.78820801683162
H         4.13784583378437   -0.85767639251926   11.99773119996202
H         5.33336990178696   -0.28169807935070   13.20743489807380
C         5.51838772427797   -2.61306550561010   14.45753151854898
O         6.98518966662661   -2.10338846180015   16.09418065427288
C         5.42467260956525   -3.92020209807369   14.91704367558419
H         6.00626456281538   -4.22401556131129   15.77768064293859
N         6.36708722191791   -1.69835942768000   15.13669607744733
O         5.18717210723283   -6.43300467321897   15.77792656399549
C         4.59316117196464   -4.83198029132851   14.30028654820644
O         3.72245438035384   -6.92707968394872   14.28403758264336
N         4.49963590662459   -6.15261704091314   14.82266554493162
N         0.75550081340419   -5.47337379928121   10.88878478949547
H         0.71999961002644   -6.21994045201237   10.19386410932776
O         0.81411293252302   -3.63031808727193   12.61515801875253
C        -0.31724914200808   -5.38571748898681   11.61776944680458
C        -1.27555154196648   -4.11443784138066   13.43833139780972
N        -0.29232528857491   -4.38995949580730   12.56110762172364
O        -3.43388570511966   -3.78766204056024   15.09520340209616
N        -1.06915450402937   -3.10576017359830   14.27583404369924
H        -0.19521876031612   -2.60860557020193   14.17623351531595
H        -1.79475178266187   -2.87553104447611   14.94662101056751
C        -2.44731467949948   -4.92241773246356   13.39413646531800
O        -4.49894513780693   -5.42022142466791   14.18946336365841
C        -2.53760834705656   -5.94153732294199   12.45500767713316
H        -3.43208932585405   -6.54941899096236   12.41504309684800
O        -0.74103536914676   -7.38889636520113    9.80592682338025
N        -3.53265383304985   -4.69923562195600   14.28346880583308
C        -1.50837325490276   -6.18479253108917   11.56936696654236
N        -1.65362048268710   -7.21782084075958   10.60092171954388
O        -2.67712513948332   -7.86263038231084   10.61106216672933

