31
CSD_code = WENTUE | q = 0 | S = 0 | Stoichiometry = C9H10BN7O3Zn | MND = 5
Zn        1.13317411222975    7.67314502984359   10.52187631548981
N         0.19134531851333    9.42818792662953    9.27729983304356
O         0.17478487422535    9.39840365709433   10.52587278774032
O         0.75205333512790    8.47951552106412    8.70629009664811
O        -0.30746003040238   10.32569808183694    8.67073936602654
N         1.85621133835612    6.24524195632721   12.80199336853030
N         1.27339652718423    7.40669412811579   12.48310319662269
N         3.34616632742971    6.04538092077339   10.83162491398798
N         3.02874132778636    7.20708753646347   10.24632964494172
N         1.12624178771553    4.92774096727505   10.83365202859286
N         0.38470255043950    5.87320479813013   10.24240184498911
C         1.91354869313286    6.12360685588926   14.13253344699278
C         1.34642653148514    7.24825029541321   14.69791408158209
C         0.95811258015331    8.02639562556033   13.61158778414835
C         4.59940869410971    5.71008280222810   10.51061076537562
C         5.11659883066024    6.68828986413445    9.68478278709814
C         4.08338054118820    7.60875906782412    9.54802050177400
C         0.64257820214781    3.72093504180867   10.52448347066010
C        -0.45308724423220    3.88587890849912    9.70069171302638
C        -0.57130843850019    5.26336251684315    9.55254604260200
B         2.33851297404364    5.28595964873186   11.70926128413911
H         2.82696871751154    4.31558374539845   12.17228755863582
H         2.34671844132606    5.25951200434104   14.59397309513128
H         1.23146888613378    7.47097155000352   15.73814099107203
H         0.47570009220606    8.98319388392521   13.58699583503849
H         5.04647856264092    4.81003642460595   10.88089812557057
H         6.09233117819413    6.72833107203889    9.24764647366117
H         4.05341814123856    8.52191015708156    8.98642965525624
H         1.09644766371807    2.82691027444832   10.90103468444722
H        -1.07143909777970    3.12532711843940    9.27184179938185
H        -1.28732141798315    5.82900261923170    8.98883650779386

