73
CSD_code = WENVOB | q = 0 | S = 0 | Stoichiometry = C34H28N6NiO4 | MND = 4
Ni        5.72045877640398    7.50594904741272    5.80464718394677
O         5.63365530052939    6.84226088388623    4.05926007720416
O         6.13387801878384    6.41445040091915   -2.22927048149028
N         6.38955577997205    8.93729825733004    3.60686930745731
N         6.30162789111449    9.06840156553853    4.95760197277300
N         7.93280411497272   13.48229537880916    4.88612476408227
C         6.07106797974970    7.41300328199806    1.79024259222014
C         5.48292998872566    6.23541793482901    1.33136628497396
C         5.50694650691685    5.91143487142600   -0.00734223842716
C         6.12834829195462    6.76520618498931   -0.91531205936179
C         6.72237249444414    7.93959163687359   -0.46236781313190
C         6.69506165826609    8.26143213997883    0.87915506224223
C         6.03022613717675    7.73834876529712    3.22280184276127
C         6.59353951788578   10.20187077298448    5.51761790241608
C         6.98994314534449   11.44540129452147    4.92919748140875
C         7.66659525767291   12.40578445038541    5.67159531962294
C         8.11159044810801   12.35430497615826    7.08885445542193
C         7.42014378395087   13.27834514150458    3.63060936439187
C         7.42685703128653   14.11794221144797    2.52696470460396
C         6.79435913631444   13.67236208041313    1.38515742006213
C         6.16229900040132   12.42864266806082    1.35643550975765
C         6.15372743269007   11.59363029095051    2.45346504830654
C         6.81117793449146   12.00240496676383    3.61128782059539
H         6.59388028665254    7.08832059790873   -2.74450193522850
H         8.42732154030494   14.30745638215239    5.18347225934500
H         5.00281852849569    5.58309264589949    2.04457213399305
H         5.05289886583845    5.00522519980563   -0.37616340907655
H         7.20927398908669    8.59957131861889   -1.16912297970755
H         7.15966576196039    9.16612032920298    1.23666453693772
H         6.56761902970966   10.18967309715790    6.60180938104418
H         8.81673541269895   11.53807923124800    7.24185973021195
H         7.26185981078312   12.18798644974590    7.75026535430688
H         8.59380920843934   13.28752683227015    7.37224393567470
H         7.90399863480019   15.08644415995856    2.56681292552085
H         6.77913446869032   14.29760751027111    0.50460926942072
H         5.66257018360615   12.11716252405837    0.45065120658227
H         5.66309758516813   10.63566155962193    2.42266501958823
O         5.80721205902902    8.16965390648312    7.55002845750370
O         5.30704047855480    8.59748476797781   13.83856335742078
N         5.05144071631896    6.07457739245116    8.00244296205529
N         5.13935347784552    5.94346377384473    6.65171090925055
N         3.50863715745263    1.52941657612088    6.72333250812431
C         5.36988278260286    7.59889089667316    9.81905995838094
C         5.95789175848750    8.77655001386749   10.27791053742219
C         5.93386293752989    9.10054932969986   11.61661510012914
C         5.31258893750618    8.24671175930417   12.52460965454607
C         4.71871347892492    7.07223988319927   12.07169474068948
C         4.74602653107463    6.75039006222566   10.73017450443873
C         5.41069991609771    7.27355085264368    8.38649789312903
C         4.84756374897722    4.80995527081447    6.09170863986030
C         4.45134527781217    3.56637361537162    6.68014223806265
C         3.77474815435336    2.60590654432792    5.93779358508783
C         3.32965105756782    2.65726590914325    4.52056880062833
C         4.02131425359928    1.73345312332457    7.97882282953937
C         4.01474552289704    0.89387625065808    9.08248305458843
C         4.64721870131946    1.33956612034532   10.22425886787115
C         5.27911941654234    2.58336804102501   10.25293444963921
C         5.28761146038736    3.41832493183207    9.15586440000258
C         4.63017936769314    3.00943993298613    7.99807082695197
H         4.84710038570308    7.92358397257488   14.35381125698162
H         3.01414200995187    0.70422112660540    6.42604190175748
H         6.43787913181524    9.42894043226787    9.56467986019428
H         6.38780114071594   10.00682295506600   11.98541312813743
H         4.23192008632931    6.41220821232788   12.77847560683395
H         4.28152562082331    5.84563756101077   10.37269509974284
H         4.87341985985651    4.82217193076948    5.00751324766841
H         2.62340347514904    3.47261073407590    4.36782923746213
H         4.17911667621960    2.82493746849536    3.85916035038034
H         2.84863465249236    1.72350488406162    4.23688110502766
H         3.53772809110042   -0.07468864923414    9.04267549294619
H         4.66255371456835    0.71434993557835   11.10482475860297
H         5.77881248918960    2.89495071027397   11.15870371631588
H         5.77816654012840    4.37633273142006    9.18660801217635

