63
CSD_code = WENYOE | q = 1 | S = 0 | Stoichiometry = C22H28CoN6O6(1+) | MND = 6
Co        0.00000357927014    0.34373609757293    4.72698942225176
O        -0.55183480355541    1.66450419677648    5.90812463225392
O         1.85610098433028    6.14350335596329    9.39528014621260
O         3.65635133615031    5.05562058055049    8.93913653494280
N         1.76643550112501    0.33041066093614    5.36732886053206
N         0.66004554194288   -1.06426263141916    3.34950499483225
N         2.46182073358530    5.24227329775171    8.86348528616905
C         1.61608837218752    2.32707960324921    6.69898102373743
C         0.20088006490688    2.47895544690919    6.55676353818613
C        -0.41486098315979    3.58157057469322    7.20759072601931
H        -1.48168523122564    3.69200032193620    7.09514045897149
C         0.31126153035196    4.47055703090825    7.94689053950520
H        -0.15846872059105    5.30940853959847    8.43852530226248
C         1.69879907688899    4.30491862675791    8.07498785164266
C         2.33905316541616    3.25497453916476    7.45943294616102
H         3.40877408745073    3.15497518935569    7.57485194871234
C         2.31031743666124    1.25041640513474    6.08199291318177
H         3.38552903373018    1.21478120684804    6.25923428424520
C         2.58691261180517   -0.70915030630425    4.78357988093028
H         2.44484731058671   -1.63961646994981    5.34859684341013
H         3.64971686738969   -0.44946415904305    4.81487231866579
C         2.12384523724579   -0.90053688964873    3.34416814662579
H         2.35525565204164   -0.00001599286249    2.77209557834428
H         2.63088215890412   -1.75799608968256    2.89326171903474
C         0.09855477469827   -1.01780619314384    1.98501353423857
H         0.36868294993129   -0.05926418792021    1.53985789686068
H        -0.98942973650440   -1.05822404641361    2.06510252264547
C         0.57145965106790   -2.16282469712830    1.09575018784901
H         1.62749747281716   -2.08112921128709    0.85635478174605
H         0.01907209626546   -2.13886747643639    0.16103708752015
H         0.38924843677342   -3.12686511424558    1.56786710285964
H         0.47191880082972   -2.00786381100081    3.69797496595602
O         0.55183707037424    1.66448299785507    3.54582596764438
O        -1.85611062973601    6.14340170732071    0.05858037625378
O        -3.65645225864334    5.05590226490227    0.51528221225126
N        -1.76643604653073    0.33040786521016    4.08666461806658
N        -0.66003888218948   -1.06424430357604    6.10449987921800
N        -2.46184309922878    5.24223872752142    0.59047459341616
C        -1.61610520810005    2.32711494037812    2.75506799941605
C        -0.20088324833662    2.47894213428535    2.89720361994321
C         0.41486812662082    3.58148796496718    2.24627042840896
H         1.48170541617864    3.69187313905338    2.35864027823793
C        -0.31126207912907    4.47047751004180    1.50698255098748
H         0.15847240243819    5.30929450434379    1.01529289662239
C        -1.69882066231819    4.30491812094006    1.37901103478763
C        -2.33908468455225    3.25504019025589    1.99466809929589
H        -3.40881662672865    3.15508062901057    1.87931579502143
C        -2.31033148681375    1.25045254131966    3.37206155111360
H        -3.38555583635351    1.21486082987564    3.19488940532435
C        -2.58691138034296   -0.70914303170279    4.67043360976421
H        -2.44485202989873   -1.63961216635619    4.10542157395955
H        -3.64971541652920   -0.44945512204999    4.63914779201283
C        -2.12383941257891   -0.90052654959361    6.10984485742443
H        -2.35524994231905   -0.00000273995620    6.68191244072717
H        -2.63087246701216   -1.75798501431051    6.56075965835606
C        -0.09854667375638   -1.01779469958545    7.46899081473057
H        -0.36870692232647   -0.05927037592617    7.91416546552820
H         0.98943913626688   -1.05817393460811    7.38890211185379
C        -0.57141073272324   -2.16285078822634    8.35822872882275
H        -1.62745293137180   -2.08120410566075    8.59762091887200
H        -0.01902974664451   -2.13889253454023    9.29294524699537
H        -0.38915838335009   -3.12687493800117    7.88609450077645
H        -0.47191035368126   -2.00784416080843    5.75602699766136

