55
CSD_code = WENYOD | q = 0 | S = 0 | Stoichiometry = C18H27F5MnN3O | MND = 4
Mn        0.17364195649115    6.63945539980233    8.73493466640318
F        -2.56675445404979    5.06219917808586   11.53021789235104
F        -2.77304915036667    2.77277257269638   12.98183341943780
F        -0.88085356278172    0.81458460620143   12.75251665559682
F         1.23150820315682    1.17303189267250   11.05106054253001
F         1.43935566363677    3.47032239777466    9.59217840428682
O        -0.45262595444012    5.40934333102181    9.82371540114804
N        -0.17302040832463    8.10518444644308    9.27592984036709
N        -0.46145322615907    6.48272935533328    7.27124707939411
N         1.76185323528214    6.53602819879667    8.58862442374572
C        -1.62968363342737    4.10414500340398   11.40742856051977
C        -1.73892909474490    2.94012571284782   12.14931205258615
C        -0.77595181231411    1.94149825982368   12.03488423138712
C         0.29773930022358    2.12516101189973   11.16830676493124
C         0.39823156886816    3.29097850050516   10.43075515875425
C        -0.55679295287129    4.32976966673965   10.51530287177605
C        -0.31636611289387    9.48133403547019    9.57885470070706
C        -0.90723110248585    6.59401338403461    5.93145174670725
C         3.13721271603303    6.56782173331087    8.25456010771413
C        -0.00844627111385   10.28894373952394    8.30343461049810
C         0.67408897230427    9.87120396434623   10.69124973074171
C        -1.75915405874031    9.75704699813305   10.03686575455426
C        -2.30616960151698    7.23587025018719    5.89953646424963
C         0.09179609910375    7.48629959879956    5.16926836346896
C        -0.95159676796491    5.19625725409938    5.28919003086717
C         3.97023964149892    6.29917526735994    9.51990258060342
C         3.43634330815818    5.49435068295089    7.19324741767580
C         3.46362125695138    7.96615985916402    7.69652062552671
H        -0.02636216812104   11.35373951883048    8.51938592330409
H        -0.74884308071894   10.06530082618027    7.53951227773889
H         0.97358292761086   10.00568061232138    7.92863568545109
H         0.59083954507194   10.93090370685436   10.91828045448453
H         1.68912152849509    9.65089566593058   10.36870112655707
H         0.46519369891788    9.29955195800217   11.59218437790573
H        -1.89147899698360   10.81641689396168   10.24147889476563
H        -1.97912799555108    9.19202481486396   10.93933501568059
H        -2.45759942124702    9.45235866413910    9.26116581172794
H        -2.65590656681570    7.33174101203568    4.87481829701456
H        -2.26574696423569    8.22040490903192    6.35950690712521
H        -3.01000823827651    6.62313972662922    6.45749540920337
H        -0.26716382180994    7.67526518484192    4.16119471047663
H         1.06022978628176    6.99514997787270    5.11980474887213
H         0.20820316898848    8.42844198454725    5.70234211103538
H        -1.23353967763885    5.27416757655523    4.24232038829038
H        -1.67726120864267    4.57097524730070    5.80388701640490
H         0.02581824299505    4.72510908035944    5.36272764916507
H         5.03030895121747    6.36946446367946    9.29058509173669
H         3.75596323238624    5.30270692574495    9.89766395348921
H         3.72165335903119    7.02633298905902   10.28962150805756
H         4.49033889228035    5.50701752983997    6.92831939680094
H         2.83925637896829    5.68407008304568    6.30451699796718
H         3.17804922126178    4.51280790607721    7.58169402276769
H         4.49378189021918    8.00139293776758    7.35280321991918
H         3.31779240711229    8.71548004670111    8.47060013960037
H         2.79185115169280    8.18645345640122    6.86858876592697

