67
CSD_code = WENYAQ | q = 0 | S = 0 | Stoichiometry = C22H32N10NiS2 | MND = 6
Ni        7.29822088085533    6.24709457322633    9.36490421687503
S         5.25115738532887    4.47966839696035   12.88586879274155
S         9.57251207644589    8.02987009283882    6.03135590393188
N         6.64220815595959    5.99057448311238   11.03498944486492
N         7.94912594748140    6.52853225766997    7.69280938668795
N         5.50586116557744    5.97313082771595    8.62244161178588
N         3.49674819261383    5.14214690163482    8.32316414573342
N         7.75083132465526    3.98934966438747    9.17801219777821
N         8.01442409439340    1.85049914299465    9.64044626187338
N         9.10379416613525    6.50956310719798   10.13061517311885
N        11.06457581097659    7.40136589459167   10.55341482738768
N         7.00661252393480    8.52629905338420    9.60685646139383
N         7.74191195018888   10.56098556517646    9.17108036428657
C         6.03843832844295    5.34340428561428   11.80408633093052
C         8.65116651105536    7.16234086421274    7.00005610436947
C         2.47717852917986    3.10900340689187    7.42347438686068
H         1.62476112979065    2.44317311535278    7.52410869827211
H         3.38837377109919    2.54085018811189    7.59456482071726
H         2.49928907950247    3.49847675852098    6.40837708059484
C         2.37090420306200    4.25135047718158    8.43110782572209
H         2.34590544136059    3.85365116506517    9.44876082550521
H         1.45582289183367    4.82348578523708    8.25667760056974
C         4.66238651065041    5.03339194274109    8.98331001690896
H         4.84522487720345    4.27641956009119    9.71999300339094
C         4.86646258707248    6.71754580202596    7.68162872773759
H         5.33425546855560    7.55612867847332    7.20841813223165
C         3.61705431949425    6.20970464592190    7.48307669987305
H         2.82195514356331    6.51877635938347    6.83598881324857
C         9.28501836422017    0.45561050912694   11.20002943210898
H         9.26153812967612   -0.48295931111382   11.74668941684950
H         9.37915578310852    1.27249435241984   11.91148377622312
H        10.15648498540006    0.46097927020170   10.54926834286092
C         8.00641115737018    0.61630877435761   10.38045446917681
H         7.13806053201857    0.62092251390467   11.04470886485899
H         7.90501836785960   -0.21445251319516    9.67594448087542
C         7.53243910199491    3.04016650182353   10.05503505530595
H         7.02609043421268    3.16180623910803   10.99319444194525
C         8.41188786503629    3.39386579895525    8.14775210154908
H         8.71288456615355    3.95339790372131    7.28480921676117
C         8.58714847427409    2.06896553754827    8.41980621804041
H         9.05058996635963    1.28215703088239    7.86038994757597
C        11.88433350317950    9.53616976381912   11.40652286637507
H        12.69815694701895   10.25221481835470   11.33423463689008
H        11.78703639418315    9.21931713869548   12.44219066684100
H        10.95736654778149   10.02138156340381   11.10936888535107
C        12.15896466908107    8.33486899877323   10.50455983675003
H        12.28285385080897    8.66240754252355    9.46899885452633
H        13.07143290126496    7.82380635950084   10.82214438141947
C         9.96156817606607    7.44218914638499    9.78730968621065
H         9.84235901544765    8.14383830738108    8.98544376698577
C         9.67043773325381    5.83704997141076   11.16841599796713
H         9.17273333709026    5.01990425392489   11.65023135605678
C        10.88788549310036    6.38429421228082   11.44500087968709
H        11.62613056029950    6.13472682455997   12.17916348482708
C         9.64738245283755   11.44338324896756    7.91942553395925
H         9.98434902493215   12.28638062070316    7.32290146990329
H         9.68878387972774   10.54603232274621    7.30508460665742
H        10.32326022198352   11.32156641240130    8.76362854830176
C         8.21988189761482   11.68345302145291    8.40694108324731
H         8.17608469107593   12.57716085943126    9.03581333496723
H         7.55717365516275   11.82606275497837    7.54896525475219
C         7.24394005633321    9.41195593235884    8.66968946177854
H         7.08319330764018    9.27156800412521    7.61890220197328
C         7.35225099437385    9.13334423370176   10.77740158052007
H         7.23951788916263    8.63009257034540   11.71724213727984
C         7.81885374898672   10.38999456053617   10.52402286371367
H         8.17517885748009   11.16309095369933   11.17434300344384

