75
CSD_code = WEPBIC | q = 0 | S = 0 | Stoichiometry = C21H45Cl2N4OReSi | MND = 5
Re        3.17724360550779    7.23306695628502   -2.93993862563553
Cl        3.66731795300763    7.52518744889836   -5.24378345216524
Cl        2.78326856118108    7.34707372898496   -0.60074321003254
O         3.17155071972793    9.14293588224098   -2.87029786671711
Si        3.03526045079659   10.62035428507354   -2.27623634319777
C         3.27025344698546   11.86967503331132   -3.69731672465391
C         1.29857510656623   10.85558509653488   -1.50855661794533
C         4.36692567047042   10.91814676063392   -0.93771872238924
N         4.46641207424045    6.02108839867130   -2.73792485155605
N         5.58437290007512    5.47633080624138   -2.55055971068364
C         6.78220203608518    6.35539208028800   -2.51479220778756
C         7.97948429307040    5.63151937702124   -1.89236005016347
C         8.17037386782330    4.22925247506495   -2.44692030808937
C         6.93507725267526    3.41423145199957   -2.10235757287631
C         5.64575169472124    4.00032304236215   -2.68585327815853
C         7.08445573321454    6.81184608113873   -3.94668957715370
C         6.44649466240887    7.57642231627946   -1.65223321769152
C         4.46004280025201    3.43788584251038   -1.89753058780784
C         5.49880509005608    3.66078803399722   -4.17377534507623
N         1.73656992189259    6.23959944216429   -3.26398699271954
N         0.57209827107532    5.82715669264312   -3.49680067315802
C        -0.52715854107148    6.82603566047906   -3.44996210950748
C        -1.82170314566499    6.25926751726135   -4.03942841452353
C        -2.11889447936733    4.84954667756181   -3.55479428213681
C        -0.99687762280065    3.94353277189940   -4.03389328991793
C         0.37507955650665    4.35615293597090   -3.49234236774278
C        -0.71795216987963    7.25040655289337   -1.98972233106364
C        -0.09322107327165    8.03560847892434   -4.28408891342844
C         1.45903514425377    3.77281555080284   -4.40332629921237
C         0.56664192478981    3.87407315606279   -2.04935538273410
H         4.24931935146777   11.77575047947118   -4.15716233031413
H         2.52901057693020   11.73448543338335   -4.47923053027735
H         3.17552305948305   12.88227597457102   -3.31984534349807
H         1.10547941275439   10.11414686488176   -0.73779373118564
H         1.21594928233417   11.83632023901670   -1.05099528101555
H         0.51029578663759   10.77393891918092   -2.25335934332329
H         4.31053552633982   10.16879097935529   -0.15269952396272
H         5.37204982009519   10.88947459916215   -1.35190440294727
H         4.23049434659108   11.89101011610319   -0.47637486974893
H         7.83405114474162    5.56450409779425   -0.81184831943107
H         8.86880818988719    6.23711834610796   -2.07264596890417
H         9.05147764169340    3.77026549250811   -1.99584697586928
H         8.33013484099267    4.25785130613106   -3.52459307718946
H         6.84502865841633    3.36908270322705   -1.01499352234989
H         7.03494721115524    2.39193037246670   -2.47019264895110
H         7.45643745784609    5.99598316900346   -4.55934089324612
H         6.18074760776338    7.19926778269733   -4.41487146564951
H         7.83313204294674    7.59989321387882   -3.93103962373167
H         6.02983318377734    7.26851789326809   -0.69440967925734
H         7.34727450633823    8.15766157046772   -1.47156306572050
H         5.72660482621187    8.22575378237700   -2.15059179703631
H         4.51780755958536    3.74891666471037   -0.85732171724519
H         3.52658944707431    3.81029705300031   -2.30554158458354
H         4.46618561221886    2.35256238829825   -1.94190774968199
H         4.71833116453024    4.27780489106958   -4.61529949865505
H         6.42281005014794    3.84452949498389   -4.71362244812646
H         5.23278509481016    2.61414771075287   -4.29425663282698
H        -1.74386918002453    6.24544823321147   -5.12884080396782
H        -2.63538855076780    6.93486957620218   -3.77214448789198
H        -3.06948017409578    4.50881298090796   -3.96772309144497
H        -2.20332411621459    4.82399509170470   -2.46859089491170
H        -0.97588223957676    3.97096571601691   -5.12524255569695
H        -1.17971967913605    2.91131787246007   -3.73173204369358
H         0.23990129852671    7.52925745733612   -1.55391814771150
H        -1.38412369517304    8.10759003268902   -1.93751643620042
H        -1.13848366111597    6.44758852106628   -1.39076387054522
H         0.73492657427093    8.56148521364964   -3.81208770542279
H         0.21990162517022    7.72281525079415   -5.27858226487454
H        -0.92252064937903    8.73190836206302   -4.37988103057126
H         1.31640548834312    4.11603010886034   -5.42509207803813
H         2.44057277688631    4.10509110806694   -4.07752093689414
H         1.41812520488539    2.68762202642516   -4.38795103382863
H         1.42635689165624    4.37323229438212   -1.60572657216689
H        -0.30544984383605    4.10096284489424   -1.44313763661696
H         0.72972282146804    2.80012523717345   -2.02880705886737

