76
CSD_code = WEPBEY | q = 0 | S = 0 | Stoichiometry = C21H45Cl3N4OSiW | MND = 6
W         0.62892342958970   -0.66041326942447    4.52383860017359
Cl        0.01329590069552   -2.95434912981392    4.52366888528729
Cl       -1.04972497789881   -0.42319765965869    6.14154073740520
O         0.73476173143286    1.27494964587453    4.52365909157258
Si       -0.02387346651140    2.69943435143533    4.52373757536543
C        -1.92729458617978    2.53634534477447    4.52367645504448
C         0.51090824839339    3.70000457789559    6.06928097376212
N         1.84733960958381   -0.91743050129340    5.86760362653743
N         2.56921126328433   -1.01260685324995    6.90414284277504
C         2.97269533733043    0.25605323071713    7.54972302949020
C         4.07067278984692    0.04781195623391    8.59528607457507
C         3.80063016166665   -1.15469710509826    9.48626329734093
C         3.76508453387276   -2.39618261921903    8.60911421257408
C         2.66590648386213   -2.34312909295771    7.54367734347381
C         1.71572786295805    0.88018158708509    8.16712236778999
C         3.48558989294981    1.17636260580367    6.43635477197880
C         1.28953917106472   -2.67701730446103    8.13205371973877
C         2.99314001183404   -3.34982478012347    6.43540571371768
H        -2.27784798199103    1.99575460084359    5.39948594846436
H        -2.40479444118349    3.51132670985456    4.52367748916118
H         0.11506631036124    3.27497695107187    6.98605914603540
H         1.59020217137747    3.76472952105185    6.16770978437734
H         0.12909506403730    4.71156878595229    5.98873392209391
H         4.14766294279175    0.95776065630621    9.19215698466284
H         5.02786022559965   -0.10040611447512    8.08951492181318
H         2.85958293097964   -1.03388428458619   10.02207315910887
H         4.59376676141325   -1.25038014597112   10.22963132305331
H         3.60298573314967   -3.28807139221639    9.21591730570401
H         4.73539127547854   -2.50120534182264    8.11762835488232
H         1.92384239531219    1.89668829552974    8.49035249086716
H         0.92414335592675    0.90300974711012    7.41581149466409
H         1.36172485262610    0.30926639281150    9.02056749539482
H         4.32200829966851    0.71413370008752    5.91558154717588
H         2.68325623947037    1.36647383368272    5.72023404153476
H         3.81612854292737    2.12026823453803    6.86081850316800
H         0.51982069701530   -2.49615402046264    7.37959069969134
H         1.25152454631892   -3.72416285250596    8.41960765436511
H         1.06711096108400   -2.06727663423415    9.00313299209092
H         2.17054305134782   -3.40472098588556    5.72403037771997
H         3.89771022297487   -3.05352973544055    5.90800581848889
H         3.14672830600210   -4.33445991409686    6.86793409908712
Cl       -1.04959421103978   -0.42292134627184    2.90584525075296
N         1.84712812483934   -0.91771396899106    3.17992143698170
C         0.51093498104773    3.69998191293528    2.97818536264053
H        -2.27787721620574    1.99573113870003    3.64788713257537
N         2.56912972766541   -1.01273045654622    2.14341622866914
H         0.11515718913916    3.27498101408826    2.06136522031749
H         1.59022944113996    3.76471392378657    2.87981003981754
H         0.12913284502309    4.71154858532468    3.05871230063637
C         2.97265530360606    0.25597831660305    1.49788005821690
C         2.66588642230540   -2.34318400646433    1.50378949839495
C         4.07060790427234    0.04785233656999    0.45223905801166
C         1.71577260810507    0.88018514960342    0.88039311740013
C         3.48561904259671    1.17640721439628    2.61112710758808
C         3.76507350023943   -2.39617446048382    0.43835800787701
C         1.28948934501285   -2.67700308217083    0.91546765840772
C         2.99311540321058   -3.34980309526967    2.61211866693653
C         3.80060189923417   -1.15465844385805   -0.43874814720737
H         4.14765131233107    0.95779822848361   -0.14464431970841
H         5.02779169196665   -0.10039793503454    0.95799975634153
H         1.92386157881360    1.89670639721042    0.55716723658849
H         0.92419438186620    0.90298863962364    1.63170264160853
H         1.36175380485885    0.30927861913637    0.02694819641931
H         4.32201818277669    0.71414455499666    3.13188987681462
H         2.68330829805705    1.36652527703191    3.32726196756135
H         3.81618349729644    2.12032059997728    2.18668188103459
H         3.60296163680850   -3.28805740588761   -0.16844697753749
H         4.73538378325611   -2.50120942126280    0.92983286556234
H         0.51977866866057   -2.49614273542946    1.66794878308931
H         1.25150433431873   -3.72414659848358    0.62792124680272
H         1.06706939407178   -2.06726354374055    0.04438627176548
H         2.17053356149111   -3.40470997837344    3.32352163734549
H         3.89771507475321   -3.05352095804199    3.13948127103956
H         3.14669930560991   -4.33441482388846    2.17955528901884
H         2.85955705597522   -1.03384928515629   -0.97455335195600
H         4.59372626643262   -1.25034135477642   -1.18212714201160

