72
CSD_code = WEPGAB | q = 0 | S = 0 | Stoichiometry = C22H44IrO2P3 | MND = 6
Ir        3.58532647519005    2.89143961937645    3.47143366975383
P         3.08695891690653    3.36831988732811    1.22953829052735
C         3.15513218774823    1.84858219320457    0.18799932855697
H         2.78072163903607    2.04116977668954   -0.81619296071767
H         4.18805864657121    1.51437122646352    0.13307430191190
H         2.57023056493681    1.06565004401356    0.66021227025922
C         3.95093074670716    4.48621225204171    0.05558911628768
H         3.48245806781833    4.39328143225402   -0.92402758064522
H         3.87622334620730    5.51018915879372    0.40298138870110
H         4.99568057737158    4.19601818264166   -0.01805670852311
C         1.34420113838496    3.85043564071949    0.91327911818959
H         1.15164717850755    3.83579323619735   -0.15937929950236
H         0.68257050135567    3.14453557753181    1.40953188827501
H         1.15633468116129    4.84779254212443    1.30050340043442
P         5.31020850514776    4.59055600602918    3.74761498610101
C         6.22432340220648    5.38207155995671    2.36731878934085
H         7.05636069337811    5.96282698244409    2.76584522279471
H         6.60628193574445    4.61079579802398    1.70247835541447
H         5.54969978691387    6.03330167649130    1.82230846920043
C         5.10421066399468    6.08658314645877    4.81047206022557
H         6.06294084236221    6.38054192305494    5.23729551490923
H         4.71605901025226    6.89377519544901    4.19394344702450
H         4.39434144833455    5.90271388002261    5.61253382682744
C         6.79440818784693    3.83629140877156    4.56468863744272
H         7.57838177335236    4.57175216873633    4.74171480457586
H         6.51981952615103    3.36686757175309    5.50597618640149
H         7.17283260110897    3.05837810081387    3.90509135179285
P         3.45845324989238    2.32331354497083    5.71452466283748
C         4.35334793608274    0.83177118321508    6.29845188194563
H         4.11717280004432    0.61313875312513    7.33877912572344
H         4.05432796230759   -0.00090848337762    5.66641936545587
H         5.42451868136205    0.98022251781432    6.18638835403493
C         1.76181630186075    1.92963354121189    6.28283332578270
H         1.74073532831181    1.80175838616748    7.36503797438155
H         1.10658077958444    2.74761567915632    5.99382673142579
H         1.42542640272548    1.01999498277426    5.79324008001138
C         3.88691801423899    3.53351765835750    7.03535974392921
H         3.75023671615688    3.07861055968680    8.01657813305362
H         4.91378433392221    3.87663591376441    6.93869900682387
H         3.21782875926450    4.38713241418589    6.94133512910539
O         2.15716690408703    4.41842827437686    4.13789990329321
O         3.16229280283657    5.68214484115906    2.62169390482945
C         2.06773190302400    1.51717412950539    3.28522628130834
H         1.09121628299523    1.98668391528524    3.40348073373933
C         2.09162433161316    0.20791759404626    3.09033596943302
H         3.04018837501932   -0.30293187120802    2.97586725398813
C         0.90839384442335   -0.73930234533087    2.98951721904034
C         1.03665435335364   -1.78404515949840    4.10627954971044
H         0.98781084870169   -1.30712157102917    5.08334746417620
H         0.23315710750397   -2.51573035277920    4.04088643326632
H         1.98675206331227   -2.30802552609827    4.02975547527529
C         0.97649633753061   -1.45099930597061    1.63191147855675
H         0.18516944659757   -2.19421559581025    1.54921827991014
H         0.86020155540646   -0.73393126646845    0.82185720062650
H         1.93422332613818   -1.95200864898800    1.51051607735386
C        -0.44181083218173   -0.03394990581737    3.11235554925851
H        -0.53498034276234    0.46575181287978    4.07374861045405
H        -0.56212766129373    0.70414157858326    2.32271737425336
H        -1.24877197125324   -0.75966280398014    3.02614992288144
C         2.34653147675533    5.50771289512365    3.55022778064391
C         1.53191111167839    6.68229737570626    4.01731758672758
C         1.60130494397736    7.88660149617618    3.32757103883075
H         2.23587430550680    7.94836930559577    2.45509913094052
C         0.86850587854420    8.97658800434981    3.75781335173260
H         0.92218093540673    9.91156048724724    3.21838869719976
C         0.06547590767350    8.87058762287409    4.88204225339808
H        -0.50574323584121    9.72351266232839    5.21983497290233
C        -0.00634854778044    7.67215347810754    5.57387500201633
H        -0.63315808267016    7.59195903824312    6.45085879743166
C         0.72311506523742    6.58012452391823    5.14249111089539
H         0.67558534173285    5.63766006727570    5.66913908128416
H         4.61758591477600    1.82267241013402    3.08523512550104

