57
CSD_code = WEPHIL | q = 0 | S = 0 | Stoichiometry = C25H23Cl2F3N2RuS | MND = 5
Ru        2.61679003571805    1.71869117882311    3.95359289321496
Cl        3.47327497949765    2.76207502069050    2.16627142227725
Cl        0.43763994451061    1.99828271360242    3.22093077263805
S         4.81290852754283    1.43504829088012    4.90806437270280
F         6.03956910286468    3.48938890644356    3.73690730250700
F         7.35163068397973    2.02420186725192    4.58156386589298
F         6.31960352225025    1.57417359346871    2.76084791499948
N         1.16102907905506   -0.08498436942060    5.96296611204010
N         2.33712419065884   -1.07004804878285    4.42986032194931
C         0.66581577856470    0.95220249356536    6.79617059701599
C         1.41661456778904    1.36870330364112    7.89682570740652
C         0.91248660122229    2.40089354946471    8.67610709800184
H         1.48333312265031    2.74301865704950    9.52716206852746
C        -0.29583770817815    3.00170600743156    8.36959803059992
H        -0.66466271814981    3.80697430784324    8.98742286520789
C        -1.02328997001944    2.58341412264490    7.26861044688090
H        -1.95713833468215    3.06179985735676    7.01779147038744
C        -0.54191241916422    1.55551392725601    6.47795460340321
H        -1.07341266702171    1.23835864627002    5.59452068726919
C         2.73253763874252    0.72845222886831    8.22020605432564
H         2.58135784699143   -0.21059978639278    8.75380905969318
H         3.32896553698523    1.38363426755610    8.84936091670847
H         3.29191330672044    0.52106874171447    7.30762033820493
C         0.88861911953913   -1.49929987015463    6.20323608749506
H        -0.18683626234282   -1.68706359369253    6.14483752711057
H         1.23761854905232   -1.78805182556978    7.19939165541673
C         1.67421780875182   -2.19407082499954    5.07899046227906
H         2.40337833036517   -2.91377750331404    5.45918285533907
H         1.01793747339784   -2.70519961019759    4.36728564338823
C         3.12638268299404   -1.11174639467167    3.24894416883586
C         4.41309164092085   -1.65780218175106    3.25955791567108
C         5.15523836163377   -1.59505361177121    2.08756747602622
H         6.15620477080264   -2.00098957353786    2.08116798848788
C         4.65069055362767   -0.99894554950476    0.94471324883102
H         5.25905777288528   -0.94770370364024    0.05508489710925
C         3.37666133535528   -0.45933633641871    0.94491904189668
H         2.97946670324460    0.01207943875692    0.05960239367008
C         2.60900713523723   -0.51333994494588    2.09763511920551
H         1.58521250393838   -0.14686260988796    2.09499675146372
C         4.99134179079147   -2.26391553985165    4.50281426885414
H         4.68986672538398   -1.69849148081021    5.38338301312190
H         6.07679002883943   -2.26874741788505    4.44831969306701
H         4.65654042784610   -3.29559996823398    4.61844962896303
C         4.63979071225114    2.73757934793613    6.12667873881709
C         3.39794740172479    3.40281663708292    6.16655735248504
C         2.36356330393883    3.05514456408725    5.26079076422811
H         1.46583331961556    3.67740869506675    5.29939130166845
C         3.25017226424543    4.40658672505179    7.14176210166421
H         2.31053238985415    4.93562770306983    7.19512219802842
C         4.27583008950499    4.70686712610140    8.01088419633945
H         4.14156948198773    5.48328639369341    8.74947377485467
C         5.48402314132355    4.02241334457262    7.94821215731343
H         6.28271204259706    4.26152477842882    8.63276280088899
C         5.66534467605718    3.02350669250229    7.00376735161675
H         6.59800283660556    2.48298053280068    6.95157144514517
C         6.19284889189557    2.19137895684276    3.92393234189384
C         1.96720134759254    0.11092712756108    4.93284871696593

