61
CSD_code = WEPJOS | q = 0 | S = 0 | Stoichiometry = C22H35NO2Ru | MND = 9
Ru        6.08039579938404    4.68529703278878   17.51721136054015
O         7.02511314667550    6.03067596492112   14.05492661994107
O         5.09738169879590    4.96030458304187   13.58367612943180
N         4.80752282434884    3.20736856706417   16.99749440643624
C         4.41619193719292    5.85886077954559   18.32637010402313
C         5.45592815160798    6.79942836585608   17.98825401589538
C         5.95091312600361    6.69725479288920   16.67629387089792
C         5.35468374573835    5.76508733912744   15.75154225145245
C         5.94102665043079    5.63184196556830   14.43110078950100
C         5.59576412938459    4.75200172282611   12.27641429419631
C         3.80685542165245    5.74761947316129   19.71378967291411
C         2.98598063254008    4.45626570979197   19.79668392062486
C         2.87063603465176    6.92123594236622   20.03303978838325
C         5.93536293228624    7.91621992129411   18.89428665546819
C         7.44509143862327    8.15408477700921   18.88478309572724
C         5.22315299743874    9.19885141733100   18.43903923631182
C         7.25195767371614    4.60252704382018   19.35411648237148
C         6.52573731735436    3.40973197956702   19.19817710985220
C         7.17816856088596    2.09935212139237   18.79162399486550
C         7.99687463871953    2.20728080214166   17.48980229308839
C         7.55225451069367    3.36715380399813   16.61300814632678
C         8.10568630564488    4.64534718254604   16.73919231427476
C         9.17757096655390    4.98435459355565   17.75294164818003
C         8.76300705306280    4.63446410040541   19.18899524094898
C         4.08628667673517    2.65002976391347   16.29351120678015
C         3.19625580371456    1.93731319502319   15.42295513889113
H         3.60581468065993    5.79434782191665   17.58939617888888
H         6.74554768444469    7.34489951670557   16.31806827875315
H         4.26571013137624    5.68076602830666   15.70832226899194
H         6.47019013916205    4.09642866186429   12.30009411654762
H         5.88746986730074    5.70189368423974   11.82243487345934
H         4.79063444026877    4.29107307129386   11.70822949174153
H         4.59430880074641    5.70882601664700   20.47438593992935
H         2.11197038324795    4.53031045520473   19.15176292867359
H         2.64570433665425    4.28198455341285   20.81539617059394
H         3.57287383711083    3.60090591429887   19.47113585892955
H         2.33165502195766    6.72422140527055   20.95817554662557
H         2.14154617911860    7.04793765796223   19.23461599488713
H         3.41468237376163    7.85238578791643   20.15267626575440
H         5.63803132889346    7.69337126998960   19.92326368091947
H         7.69608605123960    8.93309837320416   19.60274467744104
H         7.78721631969763    8.47876018685833   17.90552532708247
H         7.97701851068895    7.24898619565811   19.15719523225673
H         5.56338971718602    9.47918003430072   17.44445043155235
H         5.44357248881943   10.01632959952178   19.12279837659724
H         4.14590291946474    9.05895994274198   18.39922467977900
H         6.87660659358745    5.29554646798980   20.10822256731639
H         5.68263188380811    3.25875831302180   19.87460698437259
H         6.38470667656733    1.35963300660584   18.65264519214136
H         7.81329392280650    1.73955277133571   19.61047258057766
H         9.05850618946221    2.32655715414228   17.71937584117374
H         7.89429200327803    1.27523617373646   16.92927378192024
H         7.23711559889782    3.07032840484949   15.60960435003480
H         8.19030575308383    5.23483591609776   15.82831096600401
H         9.38608202681281    6.05386437442226   17.68253539402208
H        10.10325023488641    4.46227432621134   17.48090224598025
H         9.18700037131029    5.36806307548500   19.87995229241989
H         9.16813309244731    3.66168495947620   19.47691378424877
H         2.19424811987616    1.90716574360612   15.85232013620730
H         3.55644000697049    0.91868121850397   15.27618692514251
H         3.16236214056919    2.44979897625852   14.46065085171072

