55
CSD_code = WEPJIM | q = 0 | S = 0 | Stoichiometry = C20H31NO2Ru | MND = 9
Ru        3.07977952962670    7.74743323584755    8.37584142911052
O         5.90957171774038    8.95151253256865    2.86649621640374
O         6.25803865749588    6.73779387980893    2.86569825986898
N         2.95761893715475    5.77648686328745    8.15363597911617
C         4.69081589923204    7.53934273282063    9.75253242498679
C         4.81599016476216    8.85711511256530    9.17249239270779
C         4.86968599026301    8.94525755250265    7.76534180053351
C         4.77856553681697    7.69231184171493    7.04711984190116
C         4.76982456445633    7.67169749940881    5.53350477218241
C         6.20080280922829    7.79992435815329    4.96323312417886
C         6.11733037165593    7.92959015144355    3.46794991254025
C         6.13023397024800    6.73123633054442    1.45148218452699
C         4.95324443438572   10.08709775681266   10.03257684292723
C         5.06738193347237   10.28470000022481    7.10457984775508
C         3.01853509046893    4.63664312632704    7.99734622205810
C         3.06555092382107    3.21342783998368    7.80392654052918
C         1.48030846311196    7.43477845973095    9.77602371605990
C         1.85626265872713    8.78659809503725    9.83204827399610
C         0.95926623966919    9.88670588432463    9.29106510060995
C         1.27921425548381   10.21702793083353    7.82689238838608
C         1.94396199686464    9.06516463188093    7.09882413985137
C         1.38590576860168    7.77981927951763    7.02061589366808
C         0.04804317365145    7.44968346057643    7.66605037545369
C         0.19181707862622    6.96792402273518    9.12337348912697
H         4.57043566455482    7.53681492816610   10.83738750770487
H         5.43368862030813    6.79432874247819    9.45428880719159
H         5.46478662607821    6.91397661476221    7.40730546583981
H         4.15303091406634    8.47123114647883    5.12069514457659
H         4.35053353038334    6.72197064336125    5.18954994117958
H         6.67592209234785    8.69243838261809    5.36911629580332
H         6.78392132987501    6.91761419780298    5.22507123855803
H         6.81900567067207    7.45159645769671    1.00552916924950
H         5.11103172591828    6.99629204165151    1.16231091774166
H         6.36805984262925    5.72150304748487    1.12684981068400
H         4.25239411535290   10.87247857115207    9.75243734974244
H         5.96345589446846   10.48759553459112    9.92278327089447
H         4.79949047356067    9.84393216809640   11.08184622628153
H         4.38697489286962   11.03758576956946    7.49945796928526
H         4.93644004160884   10.23775082397439    6.02799859397007
H         6.08543794356343   10.62562104767123    7.30794841486975
H         2.05280785735623    2.82010246804980    7.71438344849424
H         3.55893071820299    2.74028811037335    8.65297885344977
H         3.61990638879158    2.98277030681069    6.89421781133979
H         1.77896296084956    6.80351106284258   10.61768905952465
H         2.42943440001417    9.08422317593713   10.71022582691299
H        -0.08409912336596    9.57908871086089    9.39367755485300
H         1.08700655949067   10.78527828034763    9.90002187483806
H         1.95481476969891   11.07605794401499    7.79185247811594
H         0.36925324796927   10.51013898680240    7.28743515603842
H         2.49595128049497    9.40514809111307    6.22217851363288
H         1.58046440002298    7.22237349122961    6.10131543748649
H        -0.59213292635739    8.33446182533854    7.62324970375098
H        -0.44680651249799    6.66948689918467    7.08255154100796
H         0.18222665731905    5.87425863998069    9.14011687287821
H        -0.66448022180341    7.30580931091559    9.72027857562396

