76
CSD_code = WEPJEG | q = 0 | S = 0 | Stoichiometry = C38H32CuFO2P2 | MND = 4
Cu        3.29661146402183    4.64654364728623    3.48072007178740
P         5.38354976763507    5.39902132910751    2.94966369682061
P         2.94315981296310    3.17786973324676    5.05850073202476
C         5.31729844673503    6.86419920197521    1.88021325693745
C         4.84547715499193    6.65459237368677    0.58467190465016
C         4.64395644255329    7.72645914309460   -0.26207352950538
C         4.90200610561037    9.01482928270566    0.18129581189196
C         5.36179421273389    9.22647297198483    1.47083853678769
C         5.56484205474946    8.15699178994590    2.32579275235989
C         6.60880051443741    4.35437573739614    2.09338802393547
C         6.44026356733719    2.97715660238723    2.19490241287339
C         7.32910653589143    2.11723151420696    1.57649618548828
C         8.38695882213934    2.63115815821708    0.84406322938338
C         8.55098888807906    4.00278798403278    0.72764700343006
C         7.66624094980444    4.86592416816809    1.34818558817088
C         6.27470450332869    5.98503243161373    4.42393490796100
C         5.48563764007161    6.61360970424281    5.38666974726677
C         6.05407780918647    7.06362942719547    6.56211560927764
C         7.40892681713514    6.87788131289856    6.78984944273922
C         8.19141612702212    6.24201492391825    5.84074370134442
C         7.62972978305814    5.79113913802920    4.65874694734218
C         1.33640279587223    3.08105442195589    5.90813211289890
C         0.60634350598078    4.26733622626157    5.95030185021339
C        -0.62519793738991    4.29946215407319    6.57703561221598
C        -1.13837439301701    3.14545229415745    7.14871147051044
C        -0.42119586007261    1.96118025415497    7.09166304870936
C         0.81585928116948    1.92267403590328    6.47272726997217
C         4.11463793388045    3.46877030846996    6.41780669764610
C         5.46767764694566    3.26485535487993    6.15103464316567
C         6.41764439560747    3.55251746583359    7.10992929925025
C         6.02878873456631    4.06960496768505    8.33596395037183
C         4.68840643169843    4.29587083682022    8.59751581472338
C         3.73056418018951    3.99931975515650    7.64363946481939
C         3.31107998901570    1.46316009014557    4.57951323628204
C         3.09336045166762    1.13459200070257    3.24432109727915
C         3.35533795632885   -0.14577428539578    2.79221343878673
C         3.84019151350240   -1.10120277831696    3.67114307429907
C         4.06506245308234   -0.77553184004224    4.99964258942081
C         3.80428555365169    0.50333844249148    5.45780968782366
O         2.22520582419295    5.32081555041921    1.91173636261664
O         2.57424155301759    6.67731566572541    3.59490493426707
C         2.15878240695363    6.44795114029765    2.43909229333796
C         1.54591346454369    7.62249532383200    1.68385461673324
F         1.36143685722728    7.35674110729802    0.35411830215658
H         4.62157135963082    5.64681945133647    0.25945530209532
H         4.26651634076642    7.56156485401999   -1.25997661672996
H         4.73403659513232    9.85521778987774   -0.47641829292361
H         5.55536926597777   10.23186724847040    1.81734267369413
H         5.90794607961550    8.32553751579794    3.33700536579296
H         5.59413007879216    2.59216740795804    2.75278906659810
H         7.19324934875156    1.04860464806044    1.65933910798810
H         9.08108024191901    1.96284037384701    0.35601800931947
H         9.37255718398444    4.40024506908246    0.14926854746241
H         7.78836639485564    5.93647281995092    1.25451825186150
H         4.42793771774534    6.74199182036491    5.19221111231203
H         5.44243556497268    7.55359351981315    7.30537500407605
H         7.85469334171307    7.22614157141998    7.71014230580612
H         9.24681410254477    6.09546085465544    6.02173634925543
H         8.24223319099493    5.28914459038604    3.92320497027427
H         1.01873066093631    5.15240998029166    5.48008872971510
H        -1.19024107613881    5.21927322025199    6.61392623709779
H        -2.10358362427009    3.16684094069940    7.63302723583994
H        -0.82905787472413    1.06209907227821    7.53051187053041
H         1.37228156623377    0.99749349313753    6.42283493882693
H         5.76496153743308    2.87723710592390    5.18495620625427
H         7.46330054650151    3.38314802985881    6.90010096411947
H         6.77231292951308    4.30018334207428    9.08424433634299
H         4.38571522088590    4.70531819603621    9.55036081759406
H         2.68438049968108    4.17707588466827    7.84949677581932
H         2.72680819578509    1.90203405951117    2.57267754210898
H         3.18763546290187   -0.39822441723218    1.75570215551294
H         4.04846390090153   -2.10130193038971    3.32038068018686
H         4.44685616760710   -1.52204064277068    5.68105701955140
H         3.99070945501839    0.76290705760901    6.49099493488326
H         0.56625800466170    7.86289712700812    2.11222897055026
H         2.20902946121233    8.49036087801629    1.76262252748469

