81
CSD_code = WEPJEI | q = 0 | S = 0 | Stoichiometry = C35H42NOPRu | MND = 9
Ru        8.59943769900993    9.82863406647133   10.28592831982167
P        10.98278879356535    9.84561567068688   10.36515432658254
O         7.19260865815509   13.24038946071135    9.38191015292231
N         8.88855498377175   14.28465938374091   10.41913029572478
C         8.68316752079893    8.64823076055887   14.80254865769201
C         8.79336131518166    8.34138939161783   13.30775221199678
C         8.63351222056875    9.60321802038079   12.48828899269002
C         7.33170696977022   10.02526641099160   12.09645452815703
C         7.20045153373433   11.16733159955521   11.29602534657631
C         8.35679528860119   11.97470191634753   11.01587754232196
C         8.09664041438973   13.18276928506634   10.21329098071380
C         9.88397251548999   14.42279879579503   11.45373714228306
C         8.68590703178127   15.44522833273089    9.58314580749020
C         7.39535796034383    8.03437927425548   10.08087574042696
C         8.66865797904347    7.75419108389962    9.56601089800017
C         8.91632011820708    7.56767529731831    8.07714101610357
C         9.22935708774389    8.88584442378228    7.34888951920309
C         8.76355680640416   10.10769007062272    8.11768649085051
C         7.42647094066391   10.27732868041717    8.49762888486146
C         6.35695631363351    9.26728719165967    8.13206886709546
C         6.15283662749502    8.23288850437352    9.24224441997229
C        11.82326720691180    9.90628864882353   12.01021427051791
C        11.67600680252716   11.10540186372985   12.70727292530166
C        12.22754876716833   11.28205897885099   13.96031744978248
C        12.95006530744325   10.25563716191030   14.54671791602666
C        13.13119637939981    9.07273985201601   13.85401136561265
C        12.57675705050053    8.89751965408953   12.59616657028656
C        11.86430419885889    8.45251228097721    9.56513198178325
C        12.54985767593012    8.60922572486463    8.36365026730876
C        13.14506345997547    7.52376805517659    7.74579220723010
C        13.06075946157148    6.26323440202356    8.31212272834857
C        12.36516026940471    6.09119125450018    9.49716968253826
C        11.76476780384615    7.17409818190992   10.11264845372211
C        11.96051528895181   11.24959837096867    9.68640042506344
C        11.34582283665184   12.34818486735349    9.10420425223703
C        12.10396542918664   13.40277994837097    8.62042885309289
C        13.48258270745664   13.37330118201639    8.72618724367365
C        14.10405223844736   12.28645457770321    9.32353530595454
C        13.35049970477911   11.23295530104436    9.80182502326717
H         8.78596184122319    7.73840483169635   15.39032426349575
H         7.71858597360077    9.09879106787109   15.02731317417413
H         9.46622511785454    9.34206437504518   15.10358210261388
H         8.03888152946458    7.59939391195730   13.03706284425876
H         9.77857395087985    7.90437769763688   13.11691619673086
H         9.29256658161757   10.38182129658346   12.88335143182628
H         6.45072283793882    9.43643222607641   12.34393276848014
H         6.22691662596705   11.48843773580546   10.93441922365827
H         9.03896813957740   12.13183917373968   11.84830260798774
H         9.49631386270465   14.11153984894056   12.42653840773349
H        10.16073390283766   15.47336209226223   11.52865237508443
H        10.78942282309102   13.85104138856241   11.22364158121405
H         8.32376638478374   16.29278445099682   10.17187725347781
H         7.93948907713239   15.18914297247879    8.83340971704362
H         9.62006626044207   15.72633307443826    9.09049819886808
H         7.16333407332086    7.56216764288340   11.03757052755535
H         9.27358401813304    7.09232122307858   10.18283095766249
H         8.03702016758522    7.09000701413853    7.63648276838822
H         9.75598325464115    6.88121926517387    7.94357181695255
H         8.76561135254903    8.89117057369458    6.35492614329132
H        10.30818771412259    8.96297194372254    7.19728180525088
H         9.30454409814548   11.00690414638804    7.82102442155365
H         7.06519108891131   11.30163670963207    8.54883799888106
H         6.63350083829298    8.77356027209871    7.19760575894022
H         5.41768457993868    9.79450564188924    7.95202559765688
H         5.84358349633235    7.26518751749132    8.82594200370453
H         5.34673150073563    8.56818203237803    9.90105171011607
H        11.13480610136091   11.91641225147572   12.24144846705945
H        12.09595035646660   12.22044094679508   14.48012973282975
H        13.37804298982833   10.38324730228605   15.52990819370309
H        13.71280592523107    8.27444466101866   14.29235869585505
H        12.76248623391717    7.97237708231009   12.07440888744923
H        12.62157418777080    9.58572347044975    7.90574442835746
H        13.67479510274289    7.66325693500564    6.81445642104089
H        13.52697107853209    5.41760728321003    7.82854466412328
H        12.28379975577232    5.10837245725462    9.93929999769943
H        11.20205921528578    7.02568007586611   11.02380239786443
H        10.26783570796183   12.38151558827175    9.04075247019681
H        11.61288738948813   14.24801168597490    8.16070491162996
H        14.07446354116751   14.19448296041962    8.34931938395308
H        15.18025923802436   12.26272536363262    9.41562920890896
H        13.83800071731327   10.38663388197155   10.26663141938888

