72
CSD_code = WEPJUY | q = 0 | S = 0 | Stoichiometry = C26H40O2P2PtS | MND = 4
C        -3.25486967720961    5.25060031202692    7.69800901856284
C        -4.25264007119180    5.52028126943353    8.61119158654292
H        -4.82004771847910    4.69225312772540    9.01029855901164
C        -4.50506267426636    6.82954410953939    8.98884409247591
H        -5.28373209161928    7.04899149507755    9.70466972016708
C        -3.74828978098531    7.85466970678605    8.44378392321890
H        -3.93434288014493    8.87690810383793    8.74147624488312
C        -2.75834274627209    7.58146064644029    7.51515460069691
H        -2.17377174915754    8.38783507617016    7.09529148914802
C        -2.49290821133248    6.26868248718735    7.13054117743509
C        -1.48242840442963    5.95433192872862    6.09917923824695
C        -1.47019134579966    6.72126026654217    4.93657276310347
H        -2.18998583075202    7.51963690191752    4.82069616895846
C        -0.57843514487582    6.44382313394938    3.91787935946589
H        -0.58502088653484    7.03987926433014    3.01665012668666
C         0.30756587189137    5.39128783116083    4.05421547365361
H         1.00182494623078    5.15851272324986    3.25893777477274
C         0.30325874961719    4.62987382140180    5.21275773859062
H         1.00348700256139    3.80753764629633    5.29538156179525
C        -0.57774277209098    4.89695734332427    6.25358671156017
C        -2.68902275170586    3.68711496975484   11.52304021902408
H        -3.60252756011589    3.66023402937805   12.11427125502692
H        -2.86358367937861    4.31982986557151   10.65433703880452
H        -1.90805323213317    4.13662031987332   12.13537796703598
C        -2.31328966592940    2.27799406882646   11.07253864052373
H        -3.15223147227275    1.88378461592010   10.49193333118848
C        -2.03125793309310    1.36801698997396   12.26379979424528
H        -1.27701073506639    1.79721643297553   12.92043964356937
H        -1.69520955441323    0.38387568400841   11.94616329105416
H        -2.94344625249294    1.24082753105659   12.84478885650451
C        -2.01560782372287   -0.05614302131517    8.91464969083254
H        -2.63479217966662    0.61032239120592    8.31713197176581
H        -2.56924933922167   -0.32463841270765    9.81134548783446
H        -1.83402097683116   -0.96614453023615    8.34449034210030
C        -0.68965402665294    0.61731486657839    9.25565418468692
H        -0.17220637800427    0.04670612436055   10.03938618219025
C         0.20028000548303    0.69075362091117    8.01398210530720
H         0.36549485643318   -0.30088462950862    7.59474080905146
H         1.16885071331272    1.12624284096687    8.25663282010152
H        -0.28718548446084    1.30809268042971    7.24901344910004
C         0.53915100599626    2.63199333539265   10.96235544196509
H         0.20210039653538    3.33705757335695   11.72531802283076
H         0.78215058232172    1.69389384100660   11.46828303131388
C         1.79044537934987    3.18869158798397   10.28159645914632
H         2.38268963677042    2.36168370091274    9.88197103758594
H         2.41187905621314    3.72057053480974   11.00901741995161
C         3.27273792253276    2.95615250302667    7.23849736989233
H         4.06046966616623    3.02453524398371    6.49091942334579
H         2.35173927789194    2.64917459779682    6.74467155826817
H         3.55930900316124    2.18713891628294    7.95339621615710
C         3.07440100549929    4.30599657640393    7.92425625693144
H         2.93542673058063    5.05943960546039    7.13991223855567
C         4.28269133907290    4.67681513063855    8.77776566075800
H         4.45160497326117    3.93771840802349    9.55741381453489
H         4.15958345869092    5.65143769845075    9.24265043950789
H         5.17298122672751    4.71211462342648    8.15199469150374
C         1.46510744301181    7.05504151284349    8.47300458514713
H         0.77738885882303    6.81711704115169    7.66197880664101
H         2.47485433243650    7.10044810375820    8.07285966297331
H         1.21175083107336    8.04000964991698    8.86072334556130
C         1.33878506101801    6.00947128875959    9.57778670411928
H         2.12877857009218    6.14896545118062   10.32566847090155
C        -0.02956527144026    6.12548197231118   10.24529528302477
H        -0.21958083895816    7.14992156142969   10.56025195936252
H        -0.09709241856715    5.48273739169799   11.11880421751353
H        -0.80999005760614    5.83573408927635    9.53188450987352
O        -3.09492676183479    3.25789953942751    5.94796420453342
O        -3.44510246333509    2.70922604837805    8.32082202046083
P         1.44905967504376    4.30851214521236    8.83614251826120
P        -0.93224316540888    2.37347923645857    9.83102115249615
S        -2.76132694958492    3.54392082409980    7.32852896316675
Pt       -0.63955862081222    3.78345663413318    7.95021010479277

