76
CSD_code = WEPKAD | q = 0 | S = 0 | Stoichiometry = C38H30CuF3O2P2 | MND = 4
Cu        3.60901905638974    4.25151740925205    3.25355691090581
P         5.51655661476778    5.41788867805157    2.88162005391982
P         3.05822436870560    2.98776013058445    4.99013676657060
C         5.19288556169496    6.92408791705509    1.91796809218740
C         4.75215103808312    6.72255786774802    0.61066227320479
C         4.38601123360994    7.80043054109503   -0.17118061216608
C         4.44651043872536    9.08323694591193    0.35101002118069
C         4.87566147605864    9.28425544669963    1.65197886413329
C         5.24568851810326    8.20941239601959    2.44132640570280
C         6.94699096031448    4.71298902163177    1.99699485866048
C         7.06657905234235    3.32762439890115    1.97273273778044
C         8.13115983713821    2.73126984379199    1.32162552664154
C         9.07691438152387    3.51781937301878    0.68428504105400
C         8.95591066257613    4.89873517043837    0.69647619224590
C         7.89496854398748    5.49888186694275    1.34955315963743
C         6.24115096572588    6.03514250303342    4.43230230872127
C         5.33598754959082    6.51240723895870    5.37958124622384
C         5.78817826562025    6.96528693324004    6.60332478126773
C         7.14286456127704    6.93228335672162    6.89577925929964
C         8.04181115845376    6.44541261358837    5.96225705714275
C         7.59682442859062    5.99291208908285    4.73208413236004
C         1.44877093686428    3.20718938362318    5.81013844357621
C         0.93145194767193    4.50166887503754    5.80911847444721
C        -0.29066161307546    4.75738429880918    6.40199158814472
C        -1.00522428382464    3.72332355754534    6.98678575475393
C        -0.49801027849922    2.43400789299183    6.97680981315269
C         0.72641754964720    2.16953375453869    6.38868563364572
C         4.25515688039594    3.33133574287784    6.31797602214627
C         5.59989422112806    3.16049916657151    5.99434775058422
C         6.58161999238667    3.43785371024399    6.92344798443364
C         6.22887588267135    3.90882118102596    8.17898200230940
C         4.89564784691563    4.09793031200451    8.49883507182994
C         3.90632229888877    3.81105316834421    7.57360622811158
C         3.20642277775634    1.18590722842891    4.78949213746525
C         2.84961494690139    0.66669462006467    3.54818383402270
C         2.91827392429647   -0.69532241257678    3.31986645473914
C         3.35191613265502   -1.54223572474738    4.32750624212991
C         3.71775229333008   -1.02702811575730    5.56120984852159
C         3.64729649806962    0.33419412818976    5.79703092221174
O         2.35032335849461    4.89724861579138    1.85150908615213
O         2.60921458118088    6.33159114577859    3.51249515670800
C         2.17309629391765    5.99133512977508    2.41278134491561
C         1.29350056421321    7.01660542023427    1.65117301899109
F        -0.00488701733547    6.89228943736914    1.98740889696299
F         1.36072173113301    6.87675115133174    0.31995222150719
F         1.63792505504439    8.28448300113751    1.92326655088516
H         4.68604828200979    5.71318369562041    0.22315579334633
H         4.03429519434497    7.63975098847392   -1.17930600030202
H         4.14575573219532    9.92550105212580   -0.25384638432713
H         4.91152893804494   10.28355738449911    2.06017108707089
H         5.56449107448043    8.36679411235460    3.46188052806820
H         6.30727971432720    2.72793938744351    2.46071952941926
H         8.22103790651136    1.65495494970206    1.30443110655497
H         9.90673073542587    3.05469609525101    0.17112518714173
H         9.69177321904559    5.50923259343928    0.19360154147319
H         7.79486987705870    6.57562351932891    1.35830950356891
H         4.28236859035045    6.52897339143394    5.13520538103615
H         5.08575307805329    7.34029718239779    7.33290585587414
H         7.49746058972057    7.28442627093612    7.85333729432859
H         9.09726310480611    6.41750621989569    6.19228441891446
H         8.30177082803364    5.60890101387208    4.00857784658515
H         1.49123392145110    5.29609574857338    5.33219018878679
H        -0.69125404364289    5.76012592683609    6.39921214851512
H        -1.96343550542510    3.92107365381469    7.44414532146494
H        -1.06069144403861    1.62879261923891    7.42652603189093
H         1.11829148927883    1.16220203536916    6.37544926387704
H         5.85996216657506    2.80985687199452    5.00288401230911
H         7.62165475639177    3.29784629373175    6.66932379814264
H         6.99567034767826    4.13280075208889    8.90535008011173
H         4.62230662035419    4.47037332722593    9.47533295587200
H         2.86600971221940    3.95997946605575    7.82583287007963
H         2.52419100725734    1.34780914045648    2.77140586699498
H         2.63879502305902   -1.09759623462685    2.35744944986303
H         3.40891019512416   -2.60612142585715    4.15080613181521
H         4.05810428487847   -1.68990886201440    6.34341556752973
H         3.93414340923786    0.73930642095264    6.75754806336277

