84
CSD_code = WEPMOV | q = 0 | S = 0 | Stoichiometry = C37H43MoN3 | MND = 8
Mo       10.98474481345426    3.36049309605125   13.31498825808499
C        11.73315146977997    2.61120211780428   11.66818869966653
H        12.00727132059842    3.39503310312730   10.95287025629485
C        12.08898016680653    1.29804905755018   11.02620862730126
C        11.30030452860625    0.09528257596521   11.56163794004419
H        11.30555022027344    0.07290005892327   12.64488372900805
H        11.74468911418527   -0.82726597018272   11.19155134706528
H        10.26995412349099    0.13979607149346   11.21712146978500
C        11.83491592953193    1.37687547412502    9.51213058053896
H        10.78178394593813    1.59490893221835    9.33994170259310
H        12.06766428496094    0.43077539302807    9.02765341646825
H        12.42381540555598    2.16647900835908    9.04987906049432
C        13.56423572015453    1.07822529998462   11.36288987288025
C        13.94208694437478    1.03515519272297   12.70341283537700
H        13.18968546607168    1.18167687649427   13.46692698996941
C        15.26185149335595    0.85186970419939   13.06744466541501
H        15.53021357249131    0.83971862520458   14.11317954780054
C        16.23699366007992    0.69916106419219   12.09547050379016
H        17.27081653652588    0.56060241888750   12.37520427907326
C        15.87361988865806    0.72966283490417   10.76240313229764
H        16.62357774487529    0.60921009259962    9.99352374587349
C        14.54978901003896    0.91879790523781   10.39741015258959
H        14.30538390609728    0.93872656729084    9.34723703724890
N        10.49833818135556    1.90588610464253   14.12653726293929
C        10.05231342141275    0.84824130060966   14.82063136567493
C        10.95164859359263   -0.15449178314810   15.23303746565203
H        11.99650021254939   -0.04044458229411   14.97663372133936
C        10.52339818029662   -1.24925503753722   15.95050773534925
H        11.23668049162863   -2.00318811179851   16.24938009929276
C         9.18580049805665   -1.38179526213957   16.29025221658031
H         8.84560434138459   -2.24091578085133   16.84823311849202
C         8.29013050649197   -0.39661151893567   15.91511352490133
H         7.24572268676403   -0.48569737424566   16.18126348157677
C         8.69532482164925    0.71400235843602   15.19010417198183
C         7.67713915289717    1.73516032230388   14.84572506232339
C         7.23174126086075    2.62172566890461   15.82981918361383
C         6.20446341995199    3.50523790717854   15.53454216197953
H         5.86200713919369    4.19280458587746   16.29596326766415
C         5.59280541383725    3.51590695956361   14.28833490747929
C         6.05404774960729    2.63677149791337   13.31880704515859
H         5.59519885995766    2.63846901570732   12.33894029541126
C         7.09398224568885    1.75404497900702   13.57758920144084
C         7.84311657282105    2.60728800824574   17.19992994295867
H         7.64924805384686    3.54348240859577   17.71944253414148
H         8.91728851345009    2.44233255060621   17.14560976439463
H         7.41708292128709    1.79726419714495   17.79225201410743
C         4.48217592281726    4.47969808443899   13.99570107759370
H         4.88188923808559    5.48552501563086   13.85900829799581
H         3.77509283723930    4.51299887249719   14.82228634210529
H         3.95060946023664    4.19790316384977   13.08998862732306
C         7.61313040997207    0.85353858204173   12.49907122703432
H         6.94368911181824    0.84356289975256   11.64187675089861
H         7.73700797098615   -0.16334310096322   12.86693797888541
H         8.59558083391431    1.21542339098246   12.18009245274119
N        12.78354767634265    3.69740084176239   14.26075378521608
C        14.19746920037747    4.48729532237375   12.31655080366861
H        14.26135232930468    3.58797257053083   11.70438777195348
H        15.14024641315487    5.02337594406951   12.22637083552559
H        13.39747041212146    5.12137469399367   11.92859707040078
C        13.97624905048115    4.15158715338096   13.75431073632728
C        14.88309232356464    4.30542607725484   14.77197030964255
H        15.89583990021402    4.64758476019352   14.67401566844956
C        14.22739330035481    3.94323545301113   15.96560757060936
H        14.64139069681725    3.95016763784402   16.95639493686982
C        12.94740255438872    3.59227366021886   15.62149154465570
C        11.85604650939935    3.16869542514646   16.55169530202565
H        12.12423527682153    3.45679777977420   17.56697055369460
H        11.71344752514697    2.08599677660744   16.53702339199272
H        10.90452267068189    3.64336546628623   16.29443542046884
N        10.90045276185677    5.45527386126987   12.43724080870228
C         9.37096968246588    4.70030811228605   10.60498470423130
H         8.80394669579903    5.58992431880640   10.32010617263756
H         8.74625314452190    3.82391267621282   10.43630846436804
H        10.25246748719473    4.64527558025391    9.96936579370349
C         9.76442421764835    4.80900900445721   12.05022454291382
C         8.91823253180664    4.60972923978594   13.17035078540461
H         7.89161388759124    4.27151054420050   13.14682959213402
C         9.58028702660639    5.19672145300466   14.27145638935692
H         9.17809759359978    5.32633243104545   15.26643971920183
C        10.80455242309250    5.67400256599896   13.77780558315567
C        11.78291801641373    6.55360343276416   14.49498182970217
H        12.75996521276389    6.51371776763850   14.01712219005015
H        11.88943274285144    6.25759720889356   15.53784873859153
H        11.42624244709632    7.58557141880849   14.46148883561886

