91
CSD_code = WEPMEL | q = 0 | S = 0 | Stoichiometry = C38H46Cl2MoN2O2 | MND = 6
Mo        1.78977016081977    2.49194106142755    9.67906699255432
Cl        2.27489586708964    1.50245187419498    7.61716428853935
Cl        1.62895002379310    2.25685654527146   12.00232253188203
N         0.20618971613416    3.20377836588106    9.43904645428491
C        -0.91124321281696    3.92053678520889    9.30001021928576
C        -1.17311543422250    4.98929093901057   10.17729165192123
H        -0.45323711291022    5.18400431725729   10.96107033547713
C        -2.31271448102227    5.75084905265328   10.04484557416204
H        -2.49185387071524    6.56738562007234   10.72933515713781
C        -3.22306027146797    5.48137323728107    9.03325177824608
H        -4.10803557761004    6.08936713339658    8.91995953240886
C        -2.99352635412865    4.42086896365284    8.17306219870507
H        -3.70079771166155    4.20081023060418    7.38531709641197
C        -1.86466392547213    3.62905402597504    8.29433594222239
C        -1.63670286614966    2.46376765162227    7.41132280353356
C        -0.63736558657956    2.50927657024234    6.43511154525954
C         0.13183784498457    3.77540349940235    6.20430699422396
H         0.75812348843014    3.99776479907684    7.07411177765592
H        -0.54917642656537    4.61421612349290    6.06160688476388
H         0.77093125400696    3.67894944486633    5.32974257759235
C        -0.38916098836457    1.38193479873961    5.66876546340240
H         0.39424082214851    1.40951092131924    4.92531114880431
C        -1.11225848453942    0.21053578702650    5.84892231659028
C        -0.79929491225798   -1.00236303006116    5.02361669308637
H         0.26897824833468   -1.21270827675917    5.05066269467110
H        -1.07897982802923   -0.83319471767380    3.98378752214359
H        -1.34008745743084   -1.87401055248573    5.38587684672347
C        -2.12837382645619    0.19574285127993    6.79260596037467
H        -2.71777910588961   -0.70286619928938    6.92488542289282
C        -2.40528239895093    1.30964946147104    7.57341205520705
C        -3.53438667311197    1.27273750068076    8.56428140076142
H        -4.39636006405769    1.80748512248963    8.16563523208991
H        -3.25704068033786    1.75574799460294    9.49981810102822
H        -3.84393008366620    0.24917986891449    8.76728824111491
N         2.93967256124371    3.80467353886353    9.51633381633090
C         3.65416832494648    4.90282816763165    9.26465502677785
C         3.54020974207894    5.53478492801195    8.01217855395058
H         2.87707210191061    5.08716463061558    7.28364463970681
C         4.25982199127125    6.67306112880479    7.72566464599279
H         4.15578136212690    7.14118359443314    6.75747292359917
C         5.10783446063235    7.22453156893620    8.67536537173239
H         5.66044688995093    8.12555749012237    8.45526666078523
C         5.24718098641943    6.60704062965142    9.90664616387527
H         5.90969590792508    7.02714952026125   10.65063141393384
C         4.54689606961432    5.45331722449853   10.21583928835998
C         4.72543291567071    4.76656987154660   11.51435122274099
C         3.69845864025417    4.78606647281680   12.46315675184149
C         2.45784410018208    5.59057031993806   12.21383519054509
H         1.83392183848149    5.61455842426439   13.10428284915932
H         1.88246552701287    5.14987260176647   11.39337266558000
H         2.71559163929520    6.61005842549827   11.92810721353356
C         3.85492497863961    4.07943242762751   13.64408588318067
H         3.05525848649858    4.07917667149706   14.37068146549645
C         5.01125524809196    3.35831938464380   13.90890335802625
C         5.13661740127370    2.57820187515199   15.18387177706604
H         4.30596815867778    1.88000452321769   15.28031797837562
H         5.10812573582769    3.24856707919234   16.04234352677829
H         6.07014734270972    2.02034784117723   15.21312047359286
C         6.03675515454336    3.38380005328230   12.97665059795591
H         6.95653436163346    2.84996984781513   13.18006522950221
C         5.91139341269174    4.08139168876558   11.78257723534973
C         7.05673771616255    4.10603316513660   10.80992312558345
H         7.63580737951526    5.02036110737514   10.94137871900514
H         6.70602134547263    4.08690561890888    9.77970465319063
H         7.72512359767913    3.26354850252930   10.97734620106725
O         3.62705336936660    0.94273861693525   10.18551090757394
C         4.91216680218117    1.22358711117401    9.61631066111498
H         5.09123876700217    2.29849399034207    9.72383348550165
H         4.88902783638795    0.96775719700953    8.54986148572223
C         5.93819780616362    0.40119545089763   10.40066579684069
H         6.86370447385123    0.95068250249252   10.54857862564989
H         6.16277720032403   -0.53181027092979    9.88131019085620
C         5.19853242252867    0.11971509273199   11.70662191701511
H         5.56222115404764   -0.76315210372448   12.22673591704386
H         5.25331940104255    0.98557076614486   12.36756875982673
C         3.77193961767848   -0.04443659249417   11.20004816902508
H         3.62750614505162   -1.04428797219268   10.75908931142289
H         3.01278633623071    0.13538319911095   11.96532821347362
O         0.69443949737293    0.31101693868381    9.91644906273315
C        -0.51117710309470    0.22740447282668   10.68616962829373
H        -1.15311500552982    1.08106555616840   10.44118847091579
H        -0.22814310533473    0.28904073451115   11.74387936858045
C        -1.17311221055626   -1.11179513574199   10.34385586700526
H        -1.96733894384341   -0.96260935182402    9.61448024230252
H        -1.58777697349833   -1.59596821397424   11.22500666223779
C        -0.02956338859099   -1.90011720603546    9.71002813130472
H         0.59440929206993   -2.35962486231120   10.47854342289414
H        -0.37048584066472   -2.66711763537372    9.01955546346161
C         0.73052435081201   -0.78410494667432    9.00485870835970
H         1.77729107021058   -1.01959427470833    8.79800941482961
H         0.23142155899746   -0.50400915779703    8.06688605830889

