54
CSD_code = WEPVIZ | q = 0 | S = 0 | Stoichiometry = C17H26BN7O2Zn | MND = 5
Zn        1.31786428234788   11.52545596326721    4.25617313125774
O         0.67568667693030   10.41522688049272    2.78404238405130
O         2.04417717321527    9.61511331918921    4.91907182445550
N         1.04085449103772    9.12247341909551    2.99326298440985
H         0.73414229803336    8.48521125155266    2.27025118808683
C         1.71462357892934    8.76988460579300    4.06847038412994
C         2.04703004890650    7.30660206394611    4.21738183901509
H         3.04105287388853    7.20894588902743    4.64530833544566
H         2.00462846851453    6.78895134505157    3.26326692680992
H         1.33941795983004    6.84520205113179    4.90430630239659
N         0.51543916790802   11.86728973227183    6.04328861733858
N         0.95266455445492   12.99805647725406    6.61639401918960
N         0.64762192818400   13.34951023728413    3.66056785225332
N         0.96243610629089   14.33047190449262    4.52323395240522
N         3.10991567218007   12.33659831736584    4.54692543432593
N         3.09128271071209   13.38775881672608    5.37939654028551
B         1.75586778004587   14.02470388209982    5.80022486868722
H         1.94097625465329   15.00520538792858    6.42886443985009
C        -0.17957018066396   11.18394973962091    6.94260178152763
C        -0.19476249800783   11.89844868267966    8.14171475502890
H        -0.67176707623758   11.61962616187811    9.05956501191593
C         0.53724097044048   13.04694474377038    7.89352776537431
C        -0.02810471138697   13.88231473698200    2.65196187560628
C        -0.15666897461120   15.25739285964015    2.86834245689478
H        -0.64860076032599   15.97142537947331    2.23908403737726
C         0.48588545362135   15.50332258462884    4.06780070315903
C         4.37392323138701   12.01435665051198    4.30763853191678
C         5.20486880807387   12.88911609645210    5.00962894330860
H         6.27601212766741   12.89736434175411    5.02683132209504
C         4.35057614673125   13.74810779015892    5.67974391586922
C        -0.79973969006187    9.87269956114845    6.62212371980322
H        -0.97574975629978    9.80550636423507    5.55070196108918
H        -1.73943757013367    9.75232299374897    7.15684071921793
H        -0.12796444878516    9.06498387857418    6.91149304579230
C         0.84294515863606   14.16428722535607    8.82560993013023
H         1.91851861324577   14.28246368707670    8.94274643674093
H         0.40307903566900   13.95787785635019    9.79764394460145
H         0.44003098870188   15.10215838161491    8.44769371824977
C        -0.52485301317120   13.06368440641618    1.51816844020591
H        -0.25531898044760   12.02549905402955    1.68821805015800
H        -0.08277832469858   13.40481084927767    0.58330866977780
H        -1.60687109435787   13.15055440056399    1.43319635864318
C         0.65349166449927   16.80028310883903    4.77594265569127
H         0.20010604107299   16.75981665344504    5.76471999349240
H         0.17766989713070   17.59114338254779    4.20227161665503
H         1.70867320137994   17.03844004573386    4.89744361566428
C         4.73818031315846   10.88166007540918    3.41822421280195
H         3.92759670233884   10.69412808942465    2.71742985697619
H         4.89556250980077    9.98041526192456    4.01008322391689
H         5.65235858512545   11.10261279470638    2.87154159622239
C         4.70129241862302   14.87902499309557    6.57903661915383
H         4.31506360061251   15.81765587741572    6.18583825502213
H         5.78199816693130   14.95184171473580    6.66685755758382
H         4.27593141828305   14.72809803280985    7.56939367794171

