65
CSD_code = WEPVEV | q = 1 | S = 0 | Stoichiometry = C31H27N2O4Pd(1+) | MND = 4
Pd        5.18724226139640   11.68216052494770    8.73513431723676
N         4.01455411413614   12.33337514684080   10.18631491357471
N         6.27575857416996   11.08601465224299   10.27289080241993
O         6.47586607470289   10.95550240151253    7.39556622048694
O         3.97555256809167   12.35647068889968    7.30017832030031
O        10.39749873119075    8.52460930188636    7.26637321977067
O        -0.01727195117078   14.62321713058041    6.87581032593764
C         8.45588964279611    9.79518505858211    5.85058240088951
H         8.50594603858415    9.73637704733334    6.92945959020564
C         7.39773321535489   10.42543401559769    5.30619014525225
H         7.27571562641477   10.51406320204412    4.23895714720851
C         6.34815159015444   11.02233182455745    6.11775018437944
C         5.28065497247226   11.62438118814910    5.43920678849132
H         5.31144271150702   11.60597464210675    4.36173164293531
C         4.17549305586211   12.24587545962371    6.03472852646351
C         3.17238662454318   12.81068562143149    5.14514568490107
H         3.36159897507137   12.69858599477795    4.09000117117431
C         2.07307707421398   13.43551065465107    5.60815438102562
H         1.95122315646711   13.50971472566069    6.68031918893496
C         9.55302916841153    9.17039144212763    5.15736849352743
C        10.55550660331674    8.51636545917732    5.91495499474192
C        11.62374247618436    7.91106547994914    5.26408495473124
H        12.39634671998434    7.40926884513589    5.82394075262450
C        11.71335244886693    7.94360265736813    3.88365516952306
H        12.55106463065488    7.46818823836241    3.39713452235297
C        10.73960733093817    8.57991818934984    3.13053958996621
H        10.81491944628159    8.60330308644721    2.05486067227321
C         9.67546996206316    9.18388186409827    3.76507651824871
H         8.92140338813683    9.68129064086782    3.17684843092909
C        11.36199379546751    7.87849909694834    8.06534556324351
H        11.42548735179269    6.81122739161289    7.83491277187053
H        11.02326360674107    8.00196031838070    9.09297826857191
H        12.34878018957383    8.33714141474092    7.95390489304606
C         1.01317387141085   14.02991499518328    4.83502968666902
C        -0.06713055467843   14.64285739803300    5.51615519005751
C        -1.10001358701463   15.22040863291992    4.78769699477513
H        -1.93058779840010   15.69088408939587    5.28865676613609
C        -1.07889965096962   15.20051075734445    3.40427074758538
H        -1.89075514816729   15.65407263591711    2.85683489639866
C        -0.02785187836152   14.60489141870656    2.72546895428711
H        -0.01644554287256   14.59215124112627    1.64702348037011
C         1.00213140045287   14.02854925482749    3.43734074822828
H         1.81833238412478   13.56570364311026    2.90666634567983
C        -1.06816487413057   15.21958671722016    7.60100662578395
H        -1.15072633956235   16.28839695222992    7.38397668930201
H        -0.81306590384908   15.08699140858158    8.65139407261366
H        -2.02478988382810   14.72928717723718    7.39893835367403
C         2.85647732064847   12.96943123769525   10.02155458673387
H         2.54894907551862   13.14212222420569    8.99609349781281
C         2.08365392870204   13.38847480366904   11.09077583438152
H         1.15149495274527   13.89973545261150   10.91583852956200
C         2.53131440101661   13.13743263375708   12.38076371398411
H         1.95347631465092   13.45031369814590   13.23599176713283
C         3.73520465908082   12.47699774631922   12.55441324344989
H         4.10054620101484   12.27229538364574   13.54689997498086
C         4.46621304390345   12.08067311307018   11.43618519540895
C         5.75054467511205   11.37642669883138   11.48528938239742
C         6.41389705025337   11.01654413259598   12.65675266754786
H         5.98986259816050   11.25073885875637   13.61893271711056
C         7.62650817507760   10.35422295408606   12.57554073367356
H         8.15243084612312   10.06906403572284   13.47293328783133
C         8.15091092465782   10.06560705394144   11.32283942661716
H         9.09297741447446    9.55298711873976   11.21954244904114
C         7.44260979473772   10.44916388716003   10.19707867876837
H         7.81084195559731   10.24598923921979    9.19751419476749

