107
CSD_code = WEPVAQ | q = 0 | S = 0 | Stoichiometry = C32H70Br2P2Pt | MND = 4
C         4.98942668153789    2.89052577065208    4.12705043404234
H         4.60511802746881    2.02506529681361    3.55968997779794
C         5.96282322910737    3.67764084411908    3.23407056771457
H         6.74390255129750    3.02322464246483    2.82781525296944
H         6.45852020868914    4.45460607562810    3.82120029351017
C         5.25036886080445    4.34336827484922    2.05528821024059
H         4.38545229829918    4.89514934891561    2.43078959408363
H         5.92859663132514    5.06839001670211    1.59837188433107
C         4.79861621439926    3.34385109738626    0.99834494096405
H         5.65373050840030    2.80466953625609    0.59325698597899
H         4.30101395703111    3.85777674976571    0.17844699450001
H         4.10406837057877    2.62033062430522    1.41747234864154
C         6.46621579366146    3.32101582824395    6.75523870179874
H         7.36661964835977    2.90819559775363    7.21702834441983
H         6.74066163224145    4.24327079218919    6.23391783539453
C         5.39552961250012    3.63203030430637    7.79846352305347
H         4.45536330677391    3.85334719693080    7.27123412111984
H         5.22633000273497    2.76486811687910    8.44045110762805
C         5.76339746877286    4.83595603739228    8.66295584273140
H         5.90834236939050    5.70620474449174    8.02104843632361
H         4.92504369858474    5.05048144763778    9.32857233935830
C         7.01234571897809    4.60531605722282    9.50579807573269
H         6.90679921814453    3.70564203544144   10.11027924125013
H         7.17236558603414    5.44727226240277   10.17489613381507
H         7.89656334533099    4.50214301448615    8.88147071865048
C         7.46651307114070    1.33681400615062    4.94665916129853
H         8.10879013585682    2.12742761691697    4.54672541333099
H         7.96570651240105    0.91988911156932    5.82390286305599
C         7.23137486625021    0.25611668537256    3.89657032711943
H         6.61309034112163   -0.53961033828258    4.31875215514782
H         6.68470306554742    0.67854901439885    3.05013678621918
C         8.54508810366294   -0.34114285872597    3.39642791577920
H         9.09433111645662   -0.76552221053016    4.24070710298873
H         9.16179828089230    0.45221644614635    2.96709654986523
C         8.30907320482181   -1.42228508864834    2.34919162123330
H         7.71483217273316   -2.23338366385242    2.76426938617437
H         9.25473766855965   -1.83179705179862    2.00281793594972
H         7.77748088915919   -1.01367306817249    1.49274960980661
C         4.92610847841487    0.83191025727012    6.31680812660680
H         4.08938784327210    1.32844445799753    6.81602393268373
H         4.49478850306171    0.18792236049567    5.54566478579454
C         5.72790011149713    0.01452121418470    7.32476004261988
H         6.44096451068815   -0.62955597842360    6.80597562466329
H         6.29518016605098    0.67673517794449    7.98393335453198
C         4.80158894312159   -0.85820736933812    8.17088353666289
H         4.21045254664748   -1.49735561523819    7.51200788745456
H         4.10544142327549   -0.22059438394666    8.71991437822387
C         5.58293653659695   -1.72103109286557    9.15391168822088
H         6.26370498330090   -2.38469411590127    8.62474680193029
H         4.90595894482145   -2.32924108304738    9.74827160666330
H         6.16743839084681   -1.09950221088429    9.82941522423540
P         5.88905733362104    2.13901571708894    5.47871347016173
Br        2.04793218394376    1.76174694204435    4.81356636684893
Pt        3.32633327622425    3.88404614740617    5.04538593641052
C         1.66352102424502    4.87816308403596    5.96398787087858
H         2.04782392972328    5.74364485617298    6.53134276986212
C         0.69003087575965    4.09102255072715    6.85693739243324
H        -0.09106904267861    4.74542418901953    7.26319646887077
H         0.19429040097513    3.31407078096847    6.26979797471443
C         1.40222521887421    3.42521306105904    8.03583425535270
H         2.26710977770738    2.87334144022495    7.66040985731676
H         0.72388995670824    2.70026063653297    8.49271499881721
C         1.85398128467340    4.42468467657477    9.09281596334286
H         0.99888889320409    4.96389441661640    9.49791548209048
H         2.35155946499072    3.91071577790491    9.91270037804283
H         2.54856269246039    5.14817852095798    8.67370330364138
C         0.18636664321090    4.44763425202396    3.33598560474240
H        -0.71404841273557    4.86043704212073    2.87419785144053
H        -0.08808008356183    3.52537472396488    3.85730500708431
C         1.25703962962862    4.13660727845909    2.29274706584696
H         2.19720391360121    3.91528480402474    2.81996328427116
H         1.42625634959404    5.00377081013196    1.65077051025828
C         0.88916356667862    2.93269410792077    1.42823777250511
H         0.74413891312400    2.06244559093380    2.07013148034055
H         1.72754893846642    2.71812526142061    0.76267626905416
C        -0.35971183580581    3.16340546107766    0.58530557003496
H        -0.25406581355336    4.06307629142601   -0.01916382097799
H        -0.51973216365156    2.32146182852941   -0.08380991047154
H        -1.24397036213485    3.26663115874207    1.20956853891494
C        -0.81392461940918    6.43176175341995    5.14460053192246
H        -1.45616451004735    5.64114049914492    5.54458305389687
H        -1.31320625831833    6.84866202570591    4.26739304183764
C        -0.57880346395471    7.51248616858682    6.19466955882106
H         0.03934199856683    8.30828517915278    5.77242118186442
H        -0.03198243821645    7.09011037479349    7.04103524121858
C        -1.89251195026576    8.10961591928723    6.69498946699121
H        -2.44191288605207    8.53394304975787    5.85078655915297
H        -2.50908650872255    7.31619549491416    7.12440396935908
C        -1.65647041632222    9.19078369352119    7.74219708615896
H        -1.06238770382995   10.00195746726982    7.32703962939980
H        -2.60213111903130    9.60018295975203    8.08871541796132
H        -1.12470298586086    8.78223065460526    8.59855896575883
C         1.72646483246260    6.93678206298023    3.77438490946680
H         2.56319848156439    6.44027730333778    3.27515495211459
H         2.15776156454962    7.58078421731511    4.54552990633166
C         0.92454282854543    7.75411005129130    2.76647587733278
H         0.21133785631046    8.39801859059259    3.28527912258300
H         0.35740515218166    7.09185357115085    2.10721986397648
C         1.85072778720365    8.62708151955638    1.92046726717405
H         2.44160609223699    9.26639252262568    2.57941554174696
H         2.54711384933405    7.98965202804221    1.37152777599059
C         1.06927312324507    9.48969218430177    0.93733511462802
H         0.38820114901251   10.15312748901290    1.46639617842994
H         1.74616977796615   10.09813394809324    0.34312092383042
H         0.48508947120820    8.86800770295096    0.26169885877332
P         0.76358312611973    5.62964453062319    4.61249251249132
Br        4.60143546557711    6.00702369806750    5.27879405464877

