56
CSD_code = WEPWUL | q = 0 | S = 0 | Stoichiometry = C22H25O6PPdS | MND = 4
Pd        2.80474518205343    0.43329988756660    5.58235147792095
S         0.57280645830923    2.18054135727707    5.20695507406751
P         3.22314014918081    1.54579812008143    3.73454239731687
O         0.72198080353384    1.10871757005994    4.22016861716910
O        -0.77854610531726    2.61501002503672    5.43558564776352
O         1.28341033536812    1.88363913386600    6.47015394564294
O         4.73443581267750    2.52650446751688    5.71230272449424
O         2.11379336581558   -0.50583247545606    7.49116719259902
H         1.41423496754211    0.16786511319522    7.34883581860194
O         3.13471081183224    2.62946037825280    0.99414925177720
C         1.47704916997355    3.55601432282537    4.49773565602335
C         3.39316574343775    4.33603314510997    3.30243532778834
H         4.31721923393100    4.13728535805684    2.77984054474404
C         2.65728559967597    1.35581755643617    0.98617747820445
C         2.64589630582907    3.27431403348127    3.81101204568938
C         2.94590821140489    5.63606326380935    3.46014275200814
H         3.52710801688776    6.45307723837627    3.05631614235409
C         5.01144889971808    1.81515657448717    3.52504447438104
C         1.02731783205434    4.84999302459477    4.66096771098302
H         0.10352637542117    5.00448132288744    5.19646276259197
C         5.79825444541557    1.49100306850632    2.43512740978290
H         5.33629443806096    1.07918049858315    1.55073444077170
C         2.66287352913935    0.71522914549971    2.22871270294768
C         2.20027225051309   -0.58677237435960    2.34868940394736
H         2.17662818752506   -1.03555003681625    3.34154211138037
C         5.61474235691859    2.30736008004932    4.69481774919445
C         1.76218511282344    5.89971554294782    4.13422493641525
H         1.41984822263112    6.91715820020453    4.25189838126619
C         1.74825559049195   -1.26645406073649    1.23120473916513
H         1.38542371641465   -2.27878933399113    1.31839699625129
C         1.74882679908918   -0.63376665328624   -0.00017435933792
H         1.38894366039570   -1.15408157295830   -0.87564240304427
C         2.19663459842688    0.67141555119468   -0.13151419406185
H         2.17624222284418    1.14382557449957   -1.10150477848183
C         6.98351083362873    2.51733847385787    4.74013596855781
H         7.46477455543896    2.89746050532146    5.62772989919993
C         4.30061610329443   -0.89690854750313    5.27455527717506
H         3.90223560625651   -1.87430133191213    5.56937181430596
H         5.12001678609481   -0.62944452844372    5.94990082245257
H         4.70441750466073   -0.97046000573768    4.26309927533848
C         7.75052906508179    2.21764357107155    3.62246635536198
H         8.81699520457296    2.38307038607753    3.65709348945047
C         7.16847273018351    1.70185370894118    2.47932614096283
H         7.78048006986569    1.46068792025060    1.62356444987414
C         2.94798491232142   -0.01307226602993    8.52920505173940
H         2.40691220555701   -0.03084488149553    9.48311239401755
H         3.28713709519823    1.01249344102179    8.32432841989454
H         3.81050203568672   -0.67849262465691    8.59669345553083
C         3.05805033846012    3.39029465644238   -0.18680157347025
H         3.42246819793060    4.38217655252536    0.07596049106652
H         2.02776968629275    3.46886364239580   -0.54642122430493
H         3.68947709349644    2.97046254956115   -0.97708043721362
C         5.20121552722126    3.12405336837204    6.90310452179284
H         4.31578505869628    3.27943029565314    7.51938191567790
H         5.67509650086850    4.09002190970877    6.70058700177622
H         5.90619058920503    2.47016015776198    7.42692631250091

