91
CSD_code = WEPXAS | q = 0 | S = 0 | Stoichiometry = C33H48O6P2PdS | MND = 4
C        15.37946851145411   12.27736779124257    9.82122871226318
H        14.90124811118760   12.37416197717725   10.79963380942388
H        15.26479503943292   13.23058380314586    9.29433552423988
H        16.45037661843476   12.10168636075364    9.97223328527210
C        11.47984385908063    9.68122273405347    8.97331881655379
C        11.73750448680178    8.69060388645534    8.04108080344458
C        10.73552107796393    8.10178829769516    7.29916034361746
H        11.00367860509391    7.33533748666147    6.58832915748578
C         9.42506965241385    8.50851547678454    7.49040593734284
H         8.62510209607716    8.05180736987633    6.92650224599062
C         9.14882983245435    9.51962874064001    8.39968275381357
H         8.12940604017686    9.85256497537953    8.53575966752776
C        10.16370600008059   10.11282626800975    9.13013661020306
H         9.93912456426668   10.90500753501397    9.82873072084548
C        12.12986884326948   12.05489428135489   10.28149124650009
C        12.02268421228988   12.89852378109145    9.16228505800106
C        11.62252839646855   14.21714416725568    9.30743383579101
H        11.55470604197701   14.87578343876407    8.45486628369924
C        11.30732855304775   14.68814229352083   10.57405162871048
H        10.98858574034849   15.71324843080628   10.69241150214027
C        11.40530155422707   13.86455155357188   11.68103630271870
H        11.16520718877024   14.24885432149185   12.66107863386926
C        11.83082599781868   12.55183112149026   11.53675225886817
H        11.94174009411726   11.91640222397267   12.40284472384207
C        12.77507475887237   13.05311633898371    6.88822293021867
H        13.51328416380913   13.79901084320033    7.20322222720232
H        11.93369841555615   13.54685484054089    6.38819133859936
H        13.24330609975766   12.33546607876955    6.20809750009286
C        13.15424526656243    9.62970898945582   11.43370025893527
C        12.10487749929143    9.17900319800360   12.24128231394756
C        12.39210911337904    8.54845765319759   13.44601156542310
H        11.59951933891352    8.18759406866551   14.08332106107802
C        13.70973662420499    8.37681565207011   13.83841510957804
H        13.91800790139946    7.88366391416321   14.77663377507764
C        14.74945118892975    8.82387087031249   13.04255652146783
H        15.77089353656217    8.67986101669275   13.35988017013664
C        14.46648719341430    9.44440005958240   11.83857668560686
H        15.25166653470956    9.78688285716601   11.17023070225503
C         9.74808501609447    8.90116343473878   12.45798529186990
H         8.87772000990040    9.15413098708420   11.85434296516506
H         9.64364256882275    9.35231980605859   13.45063520755068
H         9.81359011430682    7.81334478178118   12.55702331244381
C        15.77123345991684    9.97325754678872    4.75419019546151
H        16.24380916324858    9.21328067291681    4.13206631979851
H        14.77345902545220    9.62731156615462    5.02605205961760
C        15.69416132067137   11.32221708656578    4.04763218361730
H        15.38763764049635   12.07710519255334    4.77782753180421
H        16.68195390454138   11.60766672835936    3.67425624002397
C        14.70257823276998   11.30735897867764    2.88655092467071
H        13.71825109727217   11.01866597933046    3.26105729929178
H        15.01182428722715   10.55532148681375    2.15642618615978
C        14.61119676433462   12.66814210473042    2.20584222905355
H        13.89348394064532   12.64116302949962    1.38937591515869
H        15.57855760617162   12.95934620708478    1.80173299679407
H        14.29570161930867   13.42876523670218    2.91674374339729
C        18.44200335648442   10.57759579188410    5.83406648402215
H        18.43702418034308   11.62881119177851    5.53719864224493
H        19.03983770159686   10.51159297854216    6.74692740197362
C        19.04771310681317    9.70943581570606    4.74196402708740
H        18.50511257077430    9.85807844197211    3.80646827321479
H        18.95863712377364    8.65472054234750    5.01168260636953
C        20.52215316096120   10.04116423741777    4.51231849317707
H        20.61619252002465   11.09827800450398    4.25337126012843
H        21.07816032576271    9.87737301569957    5.43816455697775
C        21.12569554139807    9.19095355436953    3.40097076715247
H        22.17406603334850    9.43929662189018    3.25468294406823
H        20.59962990737761    9.35818625136525    2.46348349776195
H        21.05478484607331    8.13402764116560    3.64813071053837
C        16.82693830844346    8.56062613327472    7.20740099694380
H        15.85804175883711    8.05884780667957    7.17654253166497
H        17.54995133519796    7.93121179650959    6.68333262637638
C        17.25591731435691    8.79334931250914    8.65394144930407
H        18.26161083210863    9.22870957433767    8.67809070082816
H        16.55303681776428    9.51143613779500    9.12331650637692
C        17.22849045597645    7.49929636509586    9.46477256178183
H        17.78726914084038    6.72108634454657    8.93712248194232
H        16.18958004361876    7.17656120354757    9.55317649604700
C        17.82804284596304    7.70126861423607   10.85122105741924
H        17.30358534694948    8.49697858841100   11.37326849560653
H        18.88121719103025    7.97072573131715   10.78103040901255
H        17.74577589879806    6.79061170296958   11.43955038219250
O        13.92108102884577    9.49468373692943    6.97972210588505
O        13.60915948652310    7.10356700364792    7.05577708918645
O        14.02976557907464    8.31581761998915    9.13024614684947
O        12.33508983384969   12.28128362600442    7.99099955555204
O        10.85488567072604    9.42374281911789   11.76623447432664
O        16.24892326731359   11.32394404502571    7.15808521157723
P        12.89355456092465   10.45359872555757    9.83998021819487
P        16.70862741536645   10.17392380867342    6.32444566917731
S        13.46489716810179    8.34390943000957    7.77936047317955
Pd       14.66875380082599   10.84226026235336    8.57458007230635

