85
CSD_code = WEPXEW | q = 0 | S = 0 | Stoichiometry = C39H36O6P2PdS | MND = 4
C         0.54549546623277    1.46973738314043   27.20365100555358
H         0.09884872615083    1.33297028238194   28.19214503525364
H         1.51206030024353    1.96749640923493   27.34080664017611
H         0.73662602021873    0.47985694500471   26.77390400141099
C        -2.93313285033775    4.70405083163975   26.99006680056889
C        -3.16586013336303    5.67103858222891   27.96723642976634
H        -2.87920175138434    5.48229626785799   28.99117684813903
C        -3.77900226000196    6.86360818602026   27.62625613716615
H        -3.96530717001483    7.60425324971246   28.39143641102087
C        -4.15112637060164    7.12271728905478   26.31446412420227
H        -4.62899541416331    8.05761123524587   26.06082838484406
C        -3.89204234442458    6.18082183527139   25.33238827091494
H        -4.14471389807083    6.34186927340330   24.29576900622917
C        -3.29201588316990    4.99077957303188   25.68553772064766
C        -1.24250029318893    3.61283791656733   28.89093881678927
C        -1.47456573585169    3.13117232924387   30.16614655500031
H        -2.29672118542464    2.45140740843479   30.33755343556130
C        -0.64611446341355    3.50923205211835   31.21327376366528
H        -0.83249432869619    3.13698824860374   32.20953623425977
C         0.42898170139841    4.34767608794536   30.97931512820615
H         1.07944323439387    4.62870461583956   31.79445753318448
C         0.68893769977154    4.83231819952413   29.70536027918584
H         1.53598449088027    5.47988900494310   29.53637825328313
C        -0.15476197391330    4.47414866392863   28.66585933833314
C         1.19623588035927    5.30379484459925   26.86299470868597
H         1.99839029711282    4.64626773761878   27.21499986430330
H         1.41425939375869    6.34120890322991   27.14210335408302
H         1.10220431241873    5.21998122567760   25.77482675302708
C        -3.23856443562248    1.86156023524155   27.87602484224758
C        -2.88562540413621    0.54511336246134   27.62843900284076
H        -1.95073856465488    0.36084581511938   27.11129528222455
C        -3.71099582078648   -0.49390542591758   28.02315050774770
H        -3.42603045916222   -1.51865680151922   27.83783581228996
C        -4.90767373891144   -0.20910273967851   28.65536696188821
H        -5.56683668038647   -1.00928240877789   28.95907485731158
C        -5.27838954992719    1.10191362548208   28.90695456329665
H        -6.21705330755660    1.29887023465962   29.40153813630678
C        -4.44351484452569    2.14692966093497   28.52795244127657
C        -5.92937046043872    3.83927612683648   29.30895786893041
H        -6.05308668709067    3.45805418439076   30.32852006718164
H        -6.76362022181480    3.49886353412023   28.68809020132371
H        -5.91875379843713    4.92815499242068   29.33019055667915
C        -0.45139176240105    2.38632512933371   22.31563438165569
C        -0.14468005260877    3.68067466388207   21.91274136319995
H         0.72023902041653    4.17009017725645   22.34151023502503
C        -0.96113398001006    4.33402015853349   21.01259514257885
H        -0.73695821436324    5.34845162933100   20.71601907650669
C        -2.07788534678890    3.69095017265221   20.50317951548937
H        -2.72910444694604    4.20726522323998   19.81403915228936
C        -2.36787908239512    2.39352094497536   20.88365146948731
H        -3.24146706567826    1.89684474286821   20.48897010418434
C        -1.55325817845414    1.73289167459879   21.78654768119940
H        -1.78570590570991    0.72010082446220   22.08495539460966
C         0.06279004918614    0.02415771658054   24.03642919917368
C         0.86973333067448   -1.10668905884588   24.01921109993938
H         1.88346915407089   -1.03508373150515   23.64904736445511
C         0.37746380187462   -2.31719714099887   24.47681700327342
H         1.01031164003019   -3.19260228645326   24.46828334028173
C        -0.92588917005908   -2.40322463032985   24.93731170420718
H        -1.31289727160548   -3.35131157087772   25.28136466810664
C        -1.73168528997991   -1.27544350537150   24.95777907975424
H        -2.75020712884255   -1.34031464903517   25.30960538330947
C        -1.24123751200717   -0.05311695767805   24.52306521898030
H        -1.88560302764304    0.82794723693143   24.54520328767930
C         2.11603114378361    1.19491744476345   22.34991739527638
C         3.40267982891578    1.58135533541850   22.69268302512210
H         3.55327169778389    2.11868960164972   23.61822768659210
C         4.46279525304178    1.27629356839355   21.85668694053251
H         5.46590780283268    1.57637719278064   22.12232356222895
C         4.23459509757458    0.58431458770330   20.67885964725251
H         5.06069834593170    0.34450529950455   20.02563066908262
C         2.94759282020432    0.19976849445493   20.33322494051875
H         2.77395447068028   -0.33754033279975   19.41243286384336
C         1.88758059985653    0.50626069015947   21.16554142611854
H         0.87890779173863    0.21605268715716   20.90597797435360
O        -1.33760185929810    3.99212608586390   24.38407524370447
O        -3.49080738660928    3.97274437286563   23.26424695369078
O        -3.09661105334649    2.49017277488562   25.16641939381086
O        -0.05866119080833    4.89153569219549   27.37669147987359
O        -4.69032580416808    3.46130726545700   28.76272607516472
O         1.25738243718332    2.48430650093914   24.55422358860036
P        -2.06371491076793    3.13139623331160   27.32576457104316
P         0.73774608465803    1.62269725399939   23.45688959896455
Pd       -0.47632171362898    2.60073230379895   25.85781676541860
S        -2.78208050986553    3.76496120660552   24.50047739841654

