61
CSD_code = WEPYOG | q = 0 | S = 0 | Stoichiometry = C27H30IIrN2 | MND = 8
Ir        2.60188864069944    7.03251058330945    3.66072518699642
N         4.96799491699938    5.43880795081112    4.69191115690079
I         2.46511385298840    7.65493237051970    6.28313053055781
N         5.64344681496389    7.01422366539191    3.39535657466538
C         4.52607936565044    6.45114992725952    3.90646717335053
C         4.16604548299071    4.56307039171810    5.50207773697171
H         3.12287192626004    4.65327446864250    5.21260598103075
H         4.25498184449069    4.83709282298731    6.55482104484785
H         4.49295641743895    3.53122066165834    5.36857476938293
C         6.33423630764139    5.38453331679558    4.67615890169754
H         6.88383356999397    4.66081374017994    5.24178352107945
C         6.75918798611080    6.37347551239652    3.85843011046748
H         7.74997045663984    6.67008348759036    3.58108482332174
C         5.68404639408683    8.10548431817283    2.44860014470782
H         6.69159888331015    8.54033706171684    2.52150186230546
C         5.52883979527270    7.60302748739772    1.01713874714869
C         6.01412958902395    6.35392131152269    0.65043826423776
H         6.45604131675822    5.70290064010448    1.39153212796468
C         5.94353206259121    5.92755506933480   -0.66441626581474
H         6.32570656609600    4.95315742683179   -0.93210970551579
C         5.39156242877799    6.74608610583371   -1.63389631673074
H         5.33977771478232    6.41499344193645   -2.66022964686608
C         4.90651309023138    7.99241443512112   -1.27680768202951
H         4.47192611106599    8.63887719928328   -2.02527218354447
C         4.97466817258837    8.41819703021743    0.03860427898877
H         4.59393730785899    9.39161635837549    0.30751444060557
C         4.67976814299027    9.18390549825274    2.79255634969335
C         3.40773149297987    8.88540036954166    3.28341772535664
C         2.55352870706041    9.96483833937570    3.51900746218802
H         1.56811521053452    9.79128026954448    3.92804123574124
C         2.92684594143518   11.27228224755878    3.27094354779631
H         2.23202875097224   12.07610905635041    3.46709078168699
C         4.19498752011252   11.54836973211968    2.79218865936455
H         4.50571807770879   12.56591752989647    2.60757209526418
C         5.06511521753422   10.50222082748361    2.56290361306188
H         6.06210206365003   10.70390202814898    2.19272394506862
C         1.57585446850650    5.09130567250378    2.81467517184167
C         0.66467847018716    5.68256762163823    3.69192321195779
C         0.37777474795326    7.02339495604002    3.21501962847607
C         1.06793495122408    7.21449364066993    2.00111868479339
C         1.90778004071188    6.06658358102369    1.79791933297607
C         2.02361808032712    3.66281106391027    2.77663569756666
H         1.80312288454570    3.14765953013390    3.70980425609206
H         3.09333787641576    3.58410805883381    2.58144623612993
H         1.50225527767240    3.13819880759699    1.97269267202645
C        -0.05332372424356    5.04302632516181    4.83588033086958
H         0.40572571963859    4.09780386660810    5.12089276140954
H        -1.09033143758578    4.84722449136164    4.55508457668196
H        -0.06461500103698    5.69347145754212    5.70974337880118
C        -0.72419683789582    7.87196786799100    3.76978897645093
H        -0.70879975301340    8.87054489875699    3.33749458191342
H        -0.64715674526624    7.96324252101901    4.85294083316174
H        -1.69206574072370    7.41892989800778    3.54241993598366
C         0.89879831927360    8.33994050745042    1.03029256415564
H         0.12379751007662    8.08420424183045    0.30407161755322
H         1.82346987282464    8.53117506554812    0.48846951458591
H         0.60579841527658    9.25999397476376    1.53163452107135
C         2.59207002060286    5.71115334249052    0.51728966852522
H         1.90047948487830    5.16078263946203   -0.12572589475954
H         3.46126025191634    5.07930368972552    0.69143506410952
H         2.91860470744090    6.59822959654943   -0.01831831432227

