93
CSD_code = WEQBIF | q = 0 | S = 0 | Stoichiometry = C45H39MoO5P3 | MND = 6
C         5.54470273772411    5.91220731803264    5.63897619312059
C         4.52309632820578    3.51258783700293    4.82752408861142
C         4.09544155127278    5.70925380512453    3.31709479229014
C         5.62049245936960    3.71549511174788    2.41002999202499
C         7.07515823327120    3.09711370410107    6.64607847693604
C         7.06256212653106    3.69802363020585    7.89843880504077
H         7.44290599420216    4.69865111047659    8.04263037950438
C         6.55085673758762    3.01557178395624    8.98950500077318
H         6.54911659932950    3.49143242698125    9.95940948417247
C         6.03835735964432    1.73928129233108    8.84213804955189
H         5.63637056842279    1.21478739144920    9.69633097440836
C         6.03177467345881    1.13939935379917    7.59216566400005
H         5.62164606903694    0.14800927366390    7.46821504180429
C         6.54317612009941    1.81536907403242    6.50320637985177
H         6.53297033202618    1.35682323508446    5.52026750902810
C         9.26782338058157    6.30117896840518    9.32064016732939
H         8.59488240792777    7.14603962122681    9.27686965779778
C        10.22742799451665    6.16417860261807    8.32660924920426
C        11.10293763376411    5.08649387255252    8.35825328274514
H        11.85948536875641    4.97049269365561    7.59526618744503
C        10.99894085538950    4.14538134372872    9.36589597070636
H        11.67340119398451    3.30146779639958    9.38334035673516
C        10.03443986272515    4.28076554034691   10.35202870742337
H         9.95816794184192    3.54055090805987   11.13440705186419
C         9.17214581661675    5.36368810678008   10.33351226348633
H         8.42380302110862    5.47596854514521   11.10397821595575
C        11.73540469189473    8.45598450181329    7.47130158878240
C        13.02559233737315    7.94290649396623    7.43623223278583
H        13.19837118494222    6.91907277094916    7.13981558711872
C        14.09414219358749    8.74851883055699    7.78311414503614
H        15.09834504662526    8.35101941597703    7.75476233463178
C        13.88065835242074   10.06279139761082    8.16892425347482
H        14.71976173364165   10.68610111731494    8.44048808030093
C        12.59480797584894   10.57541494646222    8.20731222181075
H        12.42767346793656   11.59903049926797    8.50832843265545
C        11.52423753154422    9.77128037238861    7.85996323383727
H        10.51140368300182   10.14712963548236    7.87931866467356
C         7.83269842015085    6.73789060563104    1.55515051255814
C         8.36589343105967    7.94546340716368    1.11062266346807
H         8.32289556768407    8.81961063052562    1.74758009201507
C         8.92608169976088    8.03605886129816   -0.14899352137738
H         9.33483199549532    8.97655397324234   -0.48954381137598
C         8.95709463662746    6.92591730099586   -0.97913022357397
H         9.39278240213537    7.00120973612716   -1.96452115847532
C         8.41979320814514    5.72554265475894   -0.54753073837730
H         8.43242047474239    4.86153069341175   -1.19568242839022
C         7.85863749121924    5.63443576084574    0.71422856813087
H         7.42725220239628    4.70195035949791    1.05304582535168
C         6.07494949385810    8.13933176199682    3.14996914865960
C         5.25868467214493    8.27431246012981    2.02663718317384
H         5.32114282589598    7.53264706968010    1.23738229569142
C         4.37905714913363    9.33222312087424    1.91817014913984
H         3.75294690097285    9.42581493513290    1.04295403607897
C         4.29539145896365   10.26718971556465    2.93834024490219
H         3.60536688656334   11.09423688195013    2.85912923944323
C         5.09064427539519   10.13207670663505    4.06240985996657
H         5.02092678925027   10.85358246836197    4.86361973662246
C         5.97506504559783    9.07191602839958    4.17559709447508
H         6.57472268075399    8.98687624460917    5.07033707858844
C         8.47082873275131    7.15175519885006    4.28814753844594
H         9.00480263966082    7.95539568169545    3.76645441687470
H         8.02035102961904    7.57683591180587    5.18922554755758
C         8.83316557899164    5.10723786457661    5.72949210342596
H         8.31318793096095    5.71247640330937    6.48197873720111
H         9.61896784509044    4.52994554035197    6.23120506143592
C         9.46503438507702    6.06591148293654    4.71588525323679
C         9.98017945440047    5.30831379868710    3.49595524236382
H         9.14019285630531    4.82840294119757    2.99179050230792
H        10.69432444040900    4.53801228948513    3.78521533263518
H        10.46226598591536    5.98775094660291    2.79413296363316
C        10.65467936830109    6.74646847280412    5.41776303422002
H        11.02965629434158    7.57929310728524    4.81177187985449
H        11.47288905595742    6.03391400958945    5.53654906563243
C         8.68106538944652    2.56872415456218    4.48450209831128
C         8.56946232101038    2.12628441749864    3.17409358824802
H         7.83763376104126    2.58607128263243    2.52335505128152
C         9.37634714172050    1.10343218170989    2.70713854246224
H         9.28074661507101    0.76413296026227    1.68623425144489
C        10.29985572442892    0.51268877865567    3.55211352550983
H        10.92949535244036   -0.28740724892807    3.19185045178637
C        10.40892676697727    0.94080531216690    4.86651482027729
H        11.12076008970850    0.47052006515117    5.52977015595923
C         9.60303297711121    1.96110738871015    5.33372141250626
H         9.67379266111874    2.27658402117013    6.36736520846949
Mo        5.68637277748160    4.83649478942553    4.01210673905171
O         5.37445239768552    6.50522357101227    6.59943063747874
O         3.80553162586458    2.77330577188124    5.32270991101775
O         3.12951043237541    6.20556116069979    2.96239000870169
O         5.41148053529646    3.03954038642989    1.50976770587140
O         9.02861231662895    8.30134792872654    7.08510969507763
P         7.59479084837875    3.90284005848592    5.09904268892832
P         7.07544040473301    6.62145762406873    3.21390882803959
P        10.24830298968442    7.48403804110401    7.06616343716675

