93
CSD_code = WEQBEB | q = 0 | S = 0 | Stoichiometry = C45H39O5P3W | MND = 6
C         0.60963256464674    5.87249455741144    5.65820954113127
C        -0.38317561274864    3.41191713140556    4.78323652615837
C        -0.79998034200207    5.65658346318972    3.22775581846584
C         0.76070709528102    3.65086848231360    2.36834222136859
C         2.22010593000723    3.05380832047135    6.68924186063813
C         2.20854149931417    3.66565749185142    7.93625736424944
H         2.57897385752149    4.67115140913258    8.06795180156368
C         1.71249871488771    2.98772300431643    9.03704776657973
H         1.71247433887500    3.47185823122345   10.00280005456717
C         1.21297753867665    1.70472509835467    8.90456252354116
H         0.82405451896195    1.18301465876419    9.76641798994244
C         1.20212314820907    1.09492329227203    7.65953887025021
H         0.80098053140128    0.09863112169015    7.54698331613285
C         1.69804922294158    1.76663139011591    6.56085756689073
H         1.68404618143982    1.29981890824072    5.58310372844082
C         3.82268687539081    2.51859788835049    4.51842442520951
C         3.68897273074624    2.06663056941770    3.21336648605323
H         2.94370787347410    2.52112881727765    2.57459708306301
C         4.48899240153062    1.04163916228708    2.73995872717881
H         4.37600942639393    0.69406603596711    1.72368668054424
C         5.42805783523301    0.45902367749280    3.57357127873097
H         6.05267854445203   -0.34294291939970    3.20881616538278
C         5.55935656723126    0.89740420764903    4.88244032875115
H         6.28370927221100    0.43352712633995    5.53658626603763
C         4.75953699427558    1.91967876855531    5.35628810021161
H         4.84789332360243    2.24323843006108    6.38586133629960
C         5.40220491172393    6.10895335886516    8.34309247730874
C         4.44489690061822    6.24024620907287    9.33995324699925
H         3.76909645978804    7.08292296367994    9.29989114068667
C         4.35557512814067    5.30059253466699   10.35140234535337
H         3.60931147733904    5.40880471459949   11.12439970371575
C         5.22194645242318    4.22088584312995   10.36561468657263
H         5.15066596666940    3.47899201119607   11.14687807366623
C         6.18440188728584    4.09116367081042    9.37673333301586
H         6.86241240352263    3.25003749258447    9.39103768361538
C         6.28200118462712    5.03466305314935    8.37060821074149
H         7.03737593004777    4.92343282673301    7.60579884884817
C         6.90754167878794    8.40048849978533    7.47231143704860
C         6.70087196596316    9.71131501565814    7.87821079148364
H         5.68755169406230   10.08359636918542    7.92273619230460
C         7.77611945828883   10.51588371350421    8.20967103088094
H         7.61221854490601   11.53594378229062    8.52422968195102
C         9.06256236536395   10.00830551300276    8.13761807411718
H         9.90545553702718   10.63223923903734    8.39557917060955
C         9.27173430644583    8.69845715438854    7.73479176302621
H        10.27640429327362    8.30505935170430    7.67939896781365
C         8.19836880220370    7.89237311142302    7.40408234712679
H         8.36842273478129    6.87245106861847    7.09299628857893
C         2.99924522942551    6.71422498117914    1.56489230622709
C         3.55806660748150    7.90865921433786    1.11844922177705
H         3.52723665481521    8.78698053238928    1.75005306839242
C         4.12955439016381    7.98076495819867   -0.13756970276697
H         4.55924733036369    8.91103857796946   -0.48040728909376
C         4.14594124127802    6.86532376620001   -0.96084009767709
H         4.59156716564144    6.92639251108417   -1.94275454743329
C         3.58197706219691    5.67784598094701   -0.52712333541906
H         3.58327270104705    4.80998224755449   -1.17013171820200
C         3.00965082684571    5.60548609088202    0.73053817683341
H         2.55590233159256    4.68539981593708    1.07344477259715
C         1.23611691312732    8.13480829389623    3.15861001051851
C         0.44694126857990    8.30460280559804    2.02102432138926
H         0.52287157903604    7.58567995172867    1.21390937020712
C        -0.42499003925762    9.36991652626468    1.92161484985011
H        -1.02953533238631    9.49085754606578    1.03481472038757
C        -0.52981096656751   10.27621917019763    2.96509107914094
H        -1.21405862134441   11.10867996605113    2.89245940083556
C         0.23660166352878   10.10500306327406    4.10422567725325
H         0.14956759440699   10.80335976789488    4.92392318505808
C         1.11287968835840    9.03762366897547    4.20811311473095
H         1.68914974583805    8.92218206299427    5.11417534684204
C         3.62507671675728    7.11971091678613    4.30839013492112
H         4.16992914636303    7.91900539286360    3.79243448109007
H         3.17765631419151    7.54797679925187    5.20819164236659
C         5.80673353217612    6.68967460156136    5.43210717238522
H         6.18856784761249    7.51756981327380    4.82405106215443
H         6.61706376945272    5.96773572431729    5.54753472735476
C         3.96822032192377    5.07343590286071    5.75638012291100
H         3.44436087413051    5.68551746727459    6.49909033296611
H         4.75126931418022    4.50349370102826    6.26959774092272
C         4.60652462369594    6.02186639525314    4.73644715268086
C         5.10921663631593    5.25456668008875    3.51719903155744
H         5.81769286654609    4.47927332907566    3.80664690615895
H         5.59478403284308    5.92677885491433    2.81096970484770
H         4.26462035981949    4.77963819913238    3.01741330343440
O         0.41631300319930    6.45530040811573    6.62422155954977
O        -1.09206054759101    2.63987040038661    5.24814174810758
O        -1.74841719681174    6.14582846067744    2.81010667006761
O         0.54454363306126    2.97466474631999    1.46491938797582
O         4.19622793994166    8.24829680365127    7.11317009379038
P         2.73355358523660    3.85394791644991    5.13318990292887
P         2.22702737417219    6.60674919037112    3.22017028323594
P         5.41505088959566    7.42968155748845    7.08313111765644
W         0.79479881374422    4.78677941737356    4.00034446663623

