140
CSD_code = WEQBUQ | q = 0 | S = 0 | Stoichiometry = C69H65N4RhSi | MND = 5
Rh       14.78612850063284   11.82657126949430    3.62168087999998
Si       15.63007501864115   12.93275010497596    5.51151015509019
N        16.49557235639810   11.07473476930027    2.87488164152872
N        14.51163002638288   10.13579986463240    4.67631961125836
N        12.93017718790597   12.41880515381268    4.10321546507376
N        14.99734782919138   13.44146251253730    2.44499131143336
C        17.24497473307536   11.60582656787489    1.86319065968974
C        18.25220343892559   10.66704288669087    1.45484902617087
H        18.95371360201831   10.83257984137369    0.66020089556532
C        18.11523211199203    9.57728535008061    2.24333202615958
H        18.67868698888504    8.66481372392496    2.22359820610358
C        17.01925726911920    9.84009462871320    3.13204186130784
C        16.56083531958177    8.92692195527330    4.07624707632275
C        15.40356097548060    9.11419555775491    4.82673165606321
C        14.89738804710476    8.15843185924501    5.76987375616391
H        15.42408759857010    7.27967562747070    6.08844066911362
C        13.66790158906035    8.58655925148062    6.14116215869486
H        12.97495744447814    8.12645759365621    6.81956209265329
C        13.42766485116910    9.81640288476480    5.44214295877289
C        12.22068002667916   10.50802874931117    5.48013431412981
C        12.01157451498254   11.72265538019513    4.83497059922243
C        10.77313274170985   12.44582422981467    4.87832415758969
H         9.88708371718730   12.10596361746031    5.37947476021413
C        10.96417795070745   13.59344863726087    4.18654513398757
H        10.26510726753614   14.38610496221259    4.00055720941111
C        12.31704778186836   13.57145986059775    3.70769981159436
C        12.88519130931290   14.58665051054908    2.94420184976254
C        14.16125044218285   14.51913029270967    2.39599240981525
C        14.73432868197409   15.54452639315160    1.57210439913916
H        14.28360429666756   16.50084655720211    1.38856422731655
C        15.90326366317017   15.05694050959055    1.09588912331883
H        16.61078798830295   15.53337590531830    0.44479992883351
C        16.05189912460353   13.73430227784764    1.63183581445788
C        17.08479365065675   12.86379070493749    1.28942757548117
C        18.00089866666472   13.25720599402120    0.18924652706700
C        17.50829053463110   13.24264670108962   -1.12091062380910
C        18.33988755136859   13.61052475164759   -2.16528591567062
H        17.95658639161104   13.59767561356405   -3.17623544612521
C        19.65657001607602   13.99056963402521   -1.94380879611590
C        20.13450834040905   13.97743716289980   -0.64408591701520
H        21.16173724241355   14.25694944480565   -0.45428468850451
C        19.33002622631720   13.61010194328895    0.42687623859353
C        16.09639230397881   12.82000870346114   -1.40257754819658
H        15.83529517572709   11.93615509354227   -0.82317423333036
H        15.96787505386361   12.59941243344090   -2.45970906907050
H        15.39939814564021   13.61281176151410   -1.13051003965005
C        20.53883681129153   14.37452861064963   -3.09303348039726
H        21.44364772880281   14.86512228300104   -2.74280213099188
H        20.01499314848786   15.04479576577303   -3.77209332534645
H        20.82696568254202   13.48712114907973   -3.65727951508186
C        19.90890687538920   13.62721127055852    1.81081124677768
H        19.49378881133833   12.83410605035658    2.42729688576873
H        19.69449705746642   14.57963585666978    2.29411013456015
H        20.98956821567684   13.50842693467598    1.76975058392759
C        12.04015871038467   15.76197526224682    2.61188793097689
C        11.35190946487371   15.78738658948818    1.39854650574991
C        10.55808392999906   16.88371426617495    1.09385057749863
H        10.02400406064762   16.90198404780316    0.15388399218550
C        10.43524260106506   17.95197799975114    1.96841384777820
C        11.12520867579235   17.90668030152829    3.17265397117283
H        11.03574614397687   18.73322711415351    3.86394920048362
C        11.92391808289353   16.82547358145900    3.50727137925916
C        11.46962964079056   14.63981940239464    0.44054559084603
H        11.24092004938501   13.69987235455057    0.94127014961074
H        12.48728584033716   14.56967416820879    0.05661959823060
H        10.78994604411098   14.76580204405932   -0.39863789578455
C         9.57897920085175   19.13661617555653    1.63517824342931
H         9.09190233782907   19.00738599256607    0.67198375551768
H        10.18304604687467   20.04269577597176    1.60009225050266
H         8.81280952159801   19.27788006684619    2.39660785008714
C        12.65903904679537   16.78280879865341    4.81103178265278
H        13.71625547305833   16.58536812763917    4.64179564776055
H        12.26895608347767   15.98011194682472    5.43684605215218
H        12.55363237157592   17.72301549039861    5.34668485847884
C        11.06189714238428    9.84909974355607    6.13819994513589
C        10.28695751833040    8.97338785495611    5.37157617367530
C         9.20033441950916    8.34309645472885    5.95427056361300
H         8.59944555470155    7.66717330306634    5.36173278169538
C         8.86471889985310    8.56036419335545    7.28409128535199
C         9.64521380307709    9.42971854814317    8.02870714049303
H         9.39814300546428    9.60960723891483    9.06587876414323
C        10.73997708652816   10.07854204132807    7.47424456424800
C        10.63170665805821    8.72670240894171    3.93332013608101
H        10.60361975001551    9.65920428057519    3.37011305681972
H         9.93264282380402    8.02587946890399    3.48371574888238
H        11.63900475228305    8.32007623481563    3.84673978769446
C         7.68724260954969    7.85746420314014    7.88946488546119
H         7.49462588508605    8.21625510635266    8.89739604416114
H         7.87085830791596    6.78407238355356    7.93408326101304
H         6.79560465239213    8.01677070139109    7.28489797425533
C        11.56612556806060   11.01265037165297    8.30509932276724
H        11.57942402956081   12.00631505500580    7.85960991096285
H        12.59447598814907   10.65705029188589    8.36680259462920
H        11.16639893783242   11.08810464593085    9.31331926885005
C        17.27191480054997    7.62927858539702    4.19403295822785
C        16.69271226010057    6.48079146699374    3.64314474084735
C        17.35273856857673    5.26868747032132    3.75832284645162
H        16.90551606849442    4.38077283119927    3.33303990951231
C        18.57834796860295    5.16701369437762    4.40384485286325
C        19.14707601884927    6.31810469764314    4.92272743688785
H        20.10720708016031    6.26326943107876    5.41689978631790
C        18.51417300311302    7.54986646377637    4.82101447339995
C        15.38026881402906    6.55347041960957    2.91917502629236
H        15.33523770284867    7.44162172981920    2.29128536409076
H        14.55452180609740    6.60602048309367    3.62922632499838
H        15.23928016273030    5.67310360026426    2.29641237078706
C        19.26725549597062    3.83988330519637    4.51048281035807
H        20.15514245149049    3.91098849336413    5.13362998076091
H        19.56588858618716    3.48956450281810    3.52252776107009
H        18.59772323195338    3.09516462678842    4.93827075385398
C        19.18308712204737    8.77635882721184    5.36172121043820
H        18.45522443228253    9.54763218770743    5.59445321485213
H        19.87516816179370    9.18041303205658    4.62187839278774
H        19.75158283145385    8.54102890823969    6.25854623691915
C        17.01589242108135   11.98511623480390    6.44656260509072
C        18.34228185185399   12.40181398880071    6.40926966775435
H        18.62472662785165   13.21339416716626    5.75599151126813
C        19.30077976801617   11.81263156386495    7.21538183951785
H        20.32346392829924   12.15988623671315    7.17797944236212
C        18.94933899450112   10.78740889773517    8.07672066854468
H        19.69331728206000   10.33504457047307    8.71644449871102
C        17.63755775681589   10.34414216998964    8.11099610130201
H        17.35594076511360    9.53722191690723    8.77224451187547
C        16.68557468001342   10.93836225967999    7.30292157781363
H        15.66534847344901   10.58985864621598    7.34623839288761
C        16.30833343192680   14.68851519470312    5.13353848866438
C        15.83228720604801   15.80218713528014    5.81677408976637
H        15.07697657634717   15.67904015123647    6.57661248885238
C        16.31399453646020   17.07176731850729    5.54717993893522
H        15.92740133226785   17.92153937576692    6.09205490734876
C        17.28234037598301   17.25453465025856    4.57638763838290
H        17.65149223427119   18.24511591554414    4.35355790354499
C        17.77843168281930   16.15543119671100    3.89696734159185
H        18.53752811003099   16.29499465540631    3.14001437904396
C        17.30144068209584   14.88894400479555    4.18105205259638
H        17.69675792127603   14.03640671447195    3.65258487078415
C        14.27316530114365   13.16064695934474    6.86456033682018
H        14.71013665860191   13.55782751668035    7.77556700737784
H        13.82263856336772   12.20635038361362    7.10374356747327
H        13.48080752625366   13.82657223264622    6.54138491264412

