91
CSD_code = WEQCUS | q = 0 | S = 0 | Stoichiometry = C34H40BIrN6O9 | MND = 6
Ir       14.37967410655859    9.23705486226906   11.91792120774369
N        13.20498062098206   11.01150777972023   12.26201763000884
N        12.10020615731799   10.88778701812880   13.02230184631124
N        14.05326577296338    8.80145749623995   13.98410188057438
N        12.82044123873008    9.01504730949233   14.48020539483111
N        12.52146907229845    8.17548627221150   11.64404224751487
N        11.49068388332040    8.55105761751825   12.42609706270569
B        11.67669471607329    9.53761093749607   13.59177325990581
H        10.68224799563948    9.63022751662587   14.21433545062782
O        16.43520185318418    7.99466123352917   10.48860521575202
O        14.71632499239548    8.30236423546241    7.99023664301840
O        12.95882127407612    9.56866704548896    8.61186060288002
O        17.01401164225046   10.43810230740450    7.97093024873480
O        17.75225349589943    8.35425595751593    8.34750825892401
O        18.44457304482794   11.99107045584981   11.55141619043186
O        19.04704759023570   10.36061462156557   10.12228079237925
O        17.49453551678465   10.62543071453599   14.10841219318370
O        15.76188903996373   11.99348677330688   13.71147724272007
C        13.31623699249118   12.29610312526709   11.92174097069572
C        12.25041756729888   13.00737368166427   12.47971622411993
H        12.06145721073863   14.05760162436353   12.38741826477538
C        11.49897634478679   12.08066398397201   13.17204164579794
C        14.37522671745366   12.91179224970552   11.07955759604688
H        15.34581989150844   12.46493104666170   11.26615142405318
H        14.43150417677471   13.97390438648440   11.30753825850268
H        14.12996556312177   12.81054362182542   10.02200382877680
C        10.25366491944954   12.29966361303649   13.95355531339180
H         9.43393531815088   11.70785128478739   13.55027869193720
H         9.98180361669885   13.35089304598056   13.90930734269583
H        10.39494271415572   12.01697629262032   14.99519674130363
C        14.82644212488228    8.35052838910526   14.97015548446730
C        14.06396138854564    8.28114132344635   16.13957609360697
H        14.39693415493024    7.96093899688137   17.10561426377788
C        12.79830244120943    8.71166230244774   15.79034955510221
C        16.25178202532062    7.96192830278521   14.82616421384731
H        16.58667635422668    8.08659868912819   13.80149989042342
H        16.38529734894912    6.92235772404891   15.12322947244219
H        16.87678986672159    8.58525480157782   15.46279303738945
C        11.59684129074354    8.83460901979586   16.65652493061517
H        11.23942933448270    9.86235695674470   16.67694759842229
H        11.84961073644390    8.53041463619088   17.66861581620649
H        10.78946223023268    8.20300627711061   16.29039020017364
C        12.09054805204836    7.20540193510345   10.83851114774619
C        10.73552354947842    6.97575421661833   11.09148991175941
H        10.10176062555167    6.26440955350900   10.60221255390013
C        10.39060339435415    7.84764690602418   12.10556785672603
C        12.93177382770015    6.42218383355932    9.89765814201755
H        13.93221031078443    6.83073745922244    9.81852185066412
H        12.47908991459775    6.40215666347154    8.90829626343064
H        13.00915321678536    5.39369228682371   10.25217807660742
C         9.06645353822375    8.01882333486130   12.75797205611265
H         9.11778954606427    7.75943156692764   13.81394606403418
H         8.33984666484897    7.37197031985704   12.27365277006776
H         8.72914671666085    9.05026940452207   12.67888673981343
C        15.55754638988567    7.73598089727169   11.42236432125782
C        15.66300299694897    6.36728903282619   11.92626752856523
C        14.67656190407305    5.82549488196205   12.75672447990872
H        13.81854768149930    6.42255408597790   13.01560045830222
C        14.79131711207413    4.53409415396642   13.23022330917243
H        14.02188319076973    4.12538387445196   13.86871711496087
C        15.89125056228645    3.76021303126880   12.89168482677769
H        15.98047024452685    2.75181258373732   13.26805216173937
C        16.87582272392176    4.28395251743021   12.06767965651984
H        17.73218181790885    3.68202876389681   11.80196925375439
C        16.76502299454464    5.57199709034975   11.58488280265169
H        17.52800271525379    5.98536929723289   10.94386623235209
C        14.88185929690667    9.72753990051549    9.91700187309885
H        14.79643272848132   10.80399559295858    9.77587636380263
C        16.37351919988942    9.34164013409520    9.99917868590225
C        16.93257700695748   10.22668777972323   11.10191472216564
C        16.13618459841930   10.26383695492571   12.18397169162453
C        14.21699670657488    9.10447087228235    8.74888266379851
C        12.19251986599753    9.08894773764437    7.52079650125653
H        12.77271226099646    8.35816024191547    6.95319592965033
H        11.93220406332819    9.93264564704230    6.88012036388471
H        11.28375267507889    8.63052085251839    7.91329243778533
C        17.07893042460931    9.45081367335489    8.65687308849703
C        18.38386052400625    8.35924635181361    7.07571062221956
H        17.62793110282345    8.36096634791136    6.28808082886885
H        18.98282582898272    7.45341684254389    7.02855042726501
H        19.01100396854011    9.24673539190621    6.96883507791215
C        18.19809869308542   10.96347824682295   10.96863850014998
C        20.27802390068523   11.02724894112102    9.88622601089765
H        20.12919726845927   11.83583560716795    9.16707668149305
H        20.96070532422456   10.28233920151021    9.48385271961532
H        20.66387198243040   11.44449273695251   10.81846676720776
C        16.56720109035896   10.96460761596953   13.41436609633525
C        16.10477417362058   12.72881296820109   14.87274174724705
H        16.04590400397647   12.09089911752625   15.75818560216429
H        15.38697280563084   13.54270875246688   14.93943073497043
H        17.12142847230709   13.11741927024174   14.78511805651949

