44
CSD_code = WEQCOL | q = 0 | S = 0 | Stoichiometry = C19H21FeNOS | MND = 8
Fe        2.49494439692412    3.38296046774848    8.14006594658988
C         3.48790181751880    2.17655022682692    6.59301113140868
H         3.13070711971177    2.01171281671999    5.59019070462923
C         3.27140712123380    1.34054768236084    7.69834557419112
H         2.71625471476072    0.41828501583274    7.69737761485688
C         4.00373499356374    1.86467797472978    8.79409578344602
H         4.13793015199615    1.37603257455550    9.74610109566462
C         4.69350656971188    3.01521555330820    8.34636834869189
H         5.41255307441682    3.58524077349318    8.91096994577931
C         4.36076186748489    3.22602325588389    6.99686264431028
H         4.79875600036216    3.96127751590979    6.34316820743167
C         1.03518436361405    3.03342338306930    9.00075815561216
O         0.07348314485653    2.86448906838078    9.61479711733581
C         2.36259774541821    4.95572613441558    9.23389707208090
C         1.82599889115525    6.12245779352712    8.64621239741894
H         1.77122384162051    7.05335770850719    9.19927092775070
C         1.34079086588341    6.06858647311958    7.36682620333004
S         1.42870925451029    4.58257973299153    6.54313115860479
C         0.73265816967065    7.23655381790125    6.66508314678093
H         0.71839849126713    8.11425998038891    7.30693033757633
H        -0.28482808055880    6.99635403777384    6.36071794215686
H         1.29727401663983    7.46159764662435    5.76132525903762
N         2.77574293476778    5.03891220605802   10.50093598928206
C         3.22075609207886    3.89939562566355   11.26595119256352
H         2.71126210984719    3.00404495625492   10.91289539581610
H         2.98868467960434    4.06040721945740   12.31805453929580
H         4.29946579329444    3.75380297316135   11.16967447013448
C         2.82543647049658    6.27932353731381   11.21131647760916
C         1.77179698101417    6.63092836267805   12.05499932880198
C         1.85945975253292    7.82579080441153   12.75783899911007
H         1.05097978170499    8.11208697514111   13.41434166010640
C         2.96151088828864    8.64867717459023   12.61880928136647
H         3.01521398485480    9.57502750712071   13.17087748057644
C         3.99038902227848    8.29409742174867   11.76468928077868
H         4.84470872419591    8.94487832964956   11.64968097975305
C         3.93656573130603    7.10770135448255   11.04728358393378
C         0.57317178413400    5.74348439642875   12.19619645176683
H         0.74722962192396    4.98442290120761   12.95970959459183
H         0.35260124738895    5.23324106166581   11.26114872909964
H        -0.29557188482170    6.32459377988806   12.49488704338864
C         5.04092291544685    6.71493112102999   10.11338568395464
H         5.64595986757625    5.92276199920366   10.55516329894464
H         5.68898723105094    7.56335855671781    9.91018475180272
H         4.63467773927600    6.34602210205890    9.17296907263779

