71
CSD_code = WEQDUS | q = 0 | S = 0 | Stoichiometry = C34H31IO2P2Pd | MND = 4
I         1.18381294661499    3.88103159132226   19.10852609360809
Pd        2.49691494388885    3.86782873669642   16.86559033588989
P         0.78464198971108    3.62131968140628   15.44203584532482
P         4.57308108937632    4.11753492631974   17.66909405692548
O         1.49743121168671    3.27541837846698   14.00588290121330
O         5.48425581958493    4.44664475768053   16.34572337189401
C         3.49946943384757    3.85913112523819   15.16180172729345
C         2.85415522799637    3.56287088774034   13.96992481557332
C         3.54783433650920    3.55327391674699   12.76964269173404
C         4.90200083987450    3.84779114651804   12.77761369478630
C         5.56789556653511    4.14875054657187   13.95536852036421
C         4.85586974863646    4.15110074267119   15.14472007150028
C        -0.35987978235163    2.23962790109575   15.69518064030655
C         0.17085654035731    0.97853613506544   15.99859600101370
C        -0.70783977770320   -0.05408862357774   16.29352655765702
C        -2.07535731962296    0.15696546879931   16.31808609202088
C        -2.58897295092225    1.41685683092331   16.06222847131815
C        -1.73184903818948    2.45823042461709   15.76135589089400
C         1.65086635243240    0.75510271194668   16.03234255680664
C        -0.20261426195455    5.10023530649607   15.06807044154058
C        -0.97261278605160    5.26406118265530   13.91249449573536
C        -1.62826264646302    6.47591517602927   13.73040484064501
C        -1.52838957225318    7.49915723643470   14.65650996252304
C        -0.75768005264634    7.33264574794435   15.79485530969669
C        -0.09397470407705    6.13749125637612   15.99186274047215
C        -1.08933032903206    4.19432477049604   12.87282225602966
C         5.38367921304356    2.65241492873534   18.37375795843086
C         6.76804239342182    2.50231858862067   18.49997275863532
C         7.25150776855428    1.30297853360212   19.00937612512201
C         6.39878811039635    0.27828573381639   19.38007110561692
C         5.02920653198561    0.43019689062631   19.24236214922183
C         4.52890329039094    1.61338921788995   18.73512854675285
C         7.72765736378163    3.57304560053545   18.08616977661265
C         4.89932932903966    5.51344331533469   18.77735863793714
C         4.38659409343188    6.77302180675292   18.43912715931938
C         4.54580818885118    7.81491387235983   19.34175501167093
C         5.16875167753123    7.61462357179207   20.56112503771680
C         5.63177341142268    6.35649552345472   20.90671824880141
C         5.48804291007667    5.30615061991023   20.02047583221971
C         3.66046048288105    6.98660671707174   17.14733322624885
H         3.03054781147729    3.32140627858363   11.85192646501057
H         5.44950875806965    3.84300045700336   11.84782707575661
H         6.62223645983362    4.37659400852471   13.95933628857103
H        -0.31340449205660   -1.03371526700027   16.52332835605914
H        -2.73977142196847   -0.66036772154467   16.55571032720067
H        -3.65327482394375    1.59156800482336   16.10680846202842
H        -2.12458681219656    3.44898893031419   15.58136333318152
H         1.88436015423739   -0.24679161408273   16.38716668683135
H         2.08967272840315    0.88135052513369   15.03963929091543
H         2.13320100667304    1.48350698088363   16.71812917959773
H        -2.22963044381277    6.61483216709306   12.84277010860587
H        -2.05269424422753    8.42821189150736   14.48782555919815
H        -0.67550360187163    8.12558177911541   16.52257098718270
H         0.50652554081797    5.99405660985497   16.88694040014470
H        -2.08853453563252    4.18907262662192   12.44094627535756
H        -0.37650843953477    4.38494439996791   12.06958659553458
H        -0.87482017406684    3.21169857198072   13.28625271868090
H         8.31971706325102    1.17561344961679   19.11676533207054
H         6.80491403299310   -0.64087214398301   19.77590458471202
H         4.35779110515446   -0.36477215352161   19.52925505732161
H         3.45468387044979    1.74671872377128   18.63232811252300
H         8.58814922957249    3.59377156289177   18.75282369769912
H         8.08858024864401    3.37049307240943   17.07685946250737
H         7.25511680426401    4.55255418839592   18.08353722691263
H         4.16082746047114    8.79334084648754   19.09168902639280
H         5.27617155813618    8.43885982120188   21.25034918913809
H         6.09413623297277    6.19033731135631   21.86787962118316
H         5.82812864451864    4.31688444650437   20.29241492502168
H         3.22906285209220    7.98472496193982   17.10495804919791
H         4.33297380567908    6.86421973867562   16.29510460219549
H         2.83525603101882    6.25064466228056   17.04321104619646

