90
CSD_code = WEQDIH | q = 0 | S = 0 | Stoichiometry = C33H39BIrN7O9 | MND = 6
Ir        1.52799077386568   12.05598337969901    5.49998890801413
N         0.40830980277860   11.75066240083612    7.22557095770327
N         2.63557427157822   12.21475362900730    3.76256670574858
N         2.26955243987832   11.39748214997050    2.75152257689188
N         1.45752036865687    9.93597610539486    5.17697372472110
N         1.14956057193082    9.53593051502970    3.93033597922661
N        -0.23570439574545   12.16494692942439    4.25363938809923
N        -0.17984491333227   11.49899946164706    3.08811343500041
O         4.92247204147258   10.79062030680620    7.73077634571777
O         4.30201864371616   10.29362302052894    5.62039564614468
O         5.81562709404033   13.91555280872472    7.51676760487605
O         4.52402543355593   13.37613757723441    9.27407439280406
O         3.49434766710599   16.07914986764412    8.20105343144736
O         3.05501734225220   16.63214412317839    6.07120677692234
O         0.85854826264454   15.26885867631513    3.96556667485017
O         0.34488036620641   15.94991892487516    6.04914030179518
O        -1.40787769645048    8.79103262761284    6.41284216528190
B         0.99033513650581   10.55381323973241    2.78770952555674
H         0.81667859523035    9.99795826201857    1.76546880120045
C         3.24209117630606   12.08493217994236    6.61859041397920
C         4.23251064256366   11.00737357696906    6.76093408260831
C         5.25350810506316    9.24654650853937    5.55047041266546
H         6.00186482651972    9.50050690924807    4.79818244592252
H         4.73294264857433    8.33296037171483    5.25978743754350
H         5.73499593760848    9.11759754758133    6.52238099971006
C         3.53956385973810   13.28768679541636    7.16051599377714
C         4.76220538272229   13.56187506653506    7.98192743633772
C         5.62228536696738   13.61123555605971   10.14330397754696
H         6.44938409966119   12.94697639108140    9.88553952639510
H         5.26452920181718   13.40722882268436   11.14910357992225
H         5.95252792550369   14.64815238308002   10.05409276782287
C         2.71866503351401   14.39993773445497    6.69999503785210
C         3.12182261861585   15.76971322979690    7.09579673824199
C         3.44475330432636   17.96569973252553    6.35942902539264
H         2.76072063965038   18.41278686555343    7.08450544429036
H         3.41095293449745   18.50402139540958    5.41543620032951
H         4.45494027737774   17.98018764217522    6.77405431310106
C         1.72755899646406   14.07263419189046    5.82958951109516
C         0.96318505313701   15.13664357184576    5.16063013959819
C        -0.37452727036021   17.04076840000118    5.49961037301367
H         0.31179486292844   17.85342989589994    5.25142942292250
H        -1.08267785794358   17.36412558793105    6.25954707764483
H        -0.89298286444688   16.72982132814274    4.58987149696247
C        -0.44013997269292   10.71248090743190    7.40581768557388
C        -0.97030682888592    9.90943960057317    6.28061818821765
H        -1.04320369307586   10.43629597929697    5.32299824976633
C        -0.93099444827711   10.35446056261000    8.66165590261021
H        -1.57998364115365    9.49336813053428    8.71747031199870
C        -0.59514933065346   11.08891024192982    9.78027867760024
H        -0.95827384578760   10.81804201363068   10.75906219874262
C         0.21581959295007   12.19677432680735    9.58492428966972
H         0.49992582156866   12.83743856075283   10.40368803506883
C         0.68760853273600   12.47879978852804    8.31689295470311
H         1.32388943614408   13.33867167478009    8.18258478456170
C         3.73054011074667   12.87622365204607    3.37254994158805
C         4.46763180645061   13.93287668739317    4.10959737361566
H         3.80800527075752   14.76744334444705    4.33236065150750
H         5.28185920371999   14.28928068766077    3.48311496035797
H         4.88477002404339   13.56564984351460    5.04295999090822
C         4.07289185552705   12.45460679486685    2.08693199053090
H         4.90213759368512   12.79642147877217    1.50199778002709
C         3.12620328664971   11.51921098932270    1.72531388873095
C         3.02850470258124   10.76037488865056    0.45106233625737
H         3.04360450811541    9.68828911367711    0.63660803714728
H         3.87080852180900   11.01929837735539   -0.18466228170446
H         2.10657365713140   11.00159837614054   -0.07447974392209
C         1.67116510800043    8.84709338083653    5.91711034219094
C         2.02447369980933    8.83720861570724    7.36188170286070
H         2.22884593633950    9.83605698233931    7.73471786937719
H         2.90860575928198    8.22118740202671    7.51976282007907
H         1.20842700809194    8.39975043687637    7.93819218705966
C         1.48526131530600    7.71651655695526    5.11938835388245
H         1.57196067641011    6.69366796601209    5.42380328054077
C         1.15461338433787    8.19298678960069    3.86508524935673
C         0.84153236149479    7.41494392295964    2.63931050358710
H        -0.14728812842501    7.67227200431129    2.26500062446669
H         0.86447137000964    6.35347986973111    2.87023601271972
H         1.56616943196686    7.62068607192104    1.85339139655379
C        -1.38281874851025   12.83717860674008    4.29090225401625
C        -1.86385062989008   13.59535132601398    5.47624557200422
H        -1.05226381231394   13.79565989482682    6.16904075919667
H        -2.63086527252327   13.01758780293546    5.99606908975801
H        -2.31021231891767   14.53638114714456    5.16220940259556
C        -2.07750360184950   12.61123881194792    3.10005267364374
H        -3.02841456808402   13.01672962645712    2.82062861202219
C        -1.28022702885747   11.75844987396237    2.35943844989824
C        -1.53594105618115   11.19542931215974    1.00887788351854
H        -0.74875385881594   11.48996247975564    0.31746215976632
H        -2.48732361153184   11.56578806792005    0.63686744642812
H        -1.56973228592945   10.10785133997752    1.04204195424570

