83
CSD_code = WEQDIG | q = 0 | S = 0 | Stoichiometry = C42H35IO2P2Pd | MND = 4
I         5.81899033820098   11.02718171442507   10.52742284413411
Pd        5.18946056821328    8.46109488567446   10.59997378684119
P         7.31805583620521    7.79552146404044   10.29820833889840
P         2.99196668547881    8.87239091040621   10.85533083954334
O         4.69374072017818    6.77873770404827    8.39210008047661
O         4.79268162503256    6.31442243867686   13.08556398618876
C         4.73494417613296    6.52028334413189   10.70643366779932
C         4.53152204838843    5.93378325660477    9.47039115223146
C         4.19679551734895    4.59581088602676    9.35150850848876
C         4.06525190078475    3.84203354638545   10.50651400908735
C         4.26315645986239    4.40693614900990   11.75139520639011
C         4.59882531277852    5.75382918358541   11.85042799094414
C         8.31022835466952    7.93622863615721   11.80878929328591
C         7.73885545241315    8.58156336675960   12.90017856733979
C         8.44198472996082    8.70871504986983   14.08379787650838
C         9.72012450852457    8.18498931810504   14.18147441080900
C        10.28838600363141    7.52491016476865   13.10239670527039
C         9.58741656841845    7.39308007474577   11.91844261551171
C         8.15141816197118    8.75038385388236    8.99948559487312
C         9.47059552674638    9.17663822556455    9.03919406924894
C         9.97850057147878    9.91601209255123    7.98428646060586
C         9.17887749523506   10.22968683066100    6.89868184016739
C         7.85625141144433    9.81518275179024    6.86316302264815
C         7.34205292711949    9.08299494289101    7.91407032978547
C         7.63214483377442    6.07436282931260    9.79722662475818
C         7.79149136442935    5.72182691896421    8.46231760019113
C         7.89158127033862    4.38865374466118    8.10584145332724
C         7.82607890265365    3.40146469436125    9.07424997374923
C         7.66932084521977    3.74849738231722   10.40659735052156
C         7.57058458071217    5.07737717291403   10.76803495458015
C         2.46174283761054    9.51641026628928   12.46397346620051
C         3.44371712997947    9.86641181112401   13.38383340104512
C         3.09148588445681   10.36007325627116   14.62639180073076
C         1.75381683849266   10.49961756505277   14.95536850452921
C         0.77013316098954   10.13442299671513   14.04855598351286
C         1.11763207090409    9.63826770006042   12.80637119166579
C         1.84543400977664    7.48277767255010   10.59341066154375
C         1.34331609123678    7.18968454033626    9.33066565016506
C         0.58782779410484    6.04794380182350    9.13384544418945
C         0.33516579957050    5.18903188321453   10.18985782671462
C         0.83485441936166    5.47614476679540   11.44963260728058
C         1.59020067603829    6.61441122107023   11.65191540806344
C         2.47424605930088   10.06421726800060    9.58776160771581
C         3.15042321310278    9.94597046990507    8.37350351650894
C         2.85578649870454   10.79896582081942    7.32910202932855
C         1.89422585397312   11.78360545988795    7.49813337243118
C         1.23593269545415   11.91417835633409    8.70880827501123
C         1.52124620148364   11.05715195051316    9.75852795039247
H         4.55545174894295    6.28963662696104    7.57195885866658
H         4.04343148898967    4.15158766621746    8.37710684008781
H         3.80425704382509    2.79729716171043   10.43096324331699
H         4.16243131368446    3.82542826292087   12.65401016149418
H         5.01983533660067    7.25709472621075   12.95758997218744
H         6.73404319656106    8.99750622135987   12.81031539468065
H         7.99671069621248    9.21558379640287   14.92689019743083
H        10.27456072622519    8.28405168046339   15.10288651424415
H        11.28096284019656    7.10676876804537   13.18752435152467
H        10.01721071393660    6.85532379071122   11.08357930105139
H        10.09127414136744    8.95429876539095    9.89507612221907
H        11.00317160324566   10.25628768807234    8.01611499709910
H         9.58235305912745   10.81165132035584    6.08335303488529
H         7.22801719543710   10.07861699125376    6.02481863096580
H         6.29599632540788    8.77607588879547    7.92269408090575
H         7.83506289021802    6.49157119917058    7.70320024539625
H         8.01779531327918    4.11979721733767    7.06660300642305
H         7.89639676798270    2.36152936829618    8.79145427173466
H         7.61579784819757    2.98122070626480   11.16439905945476
H         7.44039390376026    5.34795686658870   11.80784877382968
H         4.49258853749360    9.76116422912740   13.11313249307566
H         3.85725366402802   10.63698341759063   15.33539586995450
H         1.47402210065831   10.88788385462926   15.92345103333195
H        -0.27242709064730   10.23360378318165   14.31409348981418
H         0.35339305728384    9.32817047727202   12.10590913228069
H         1.54506185832266    7.85598342028583    8.50234718796919
H         0.19737233217076    5.82623558003025    8.15082666919692
H        -0.24990998362493    4.29520877677860   10.03150299326203
H         0.64293017815651    4.80652934041825   12.27475269404107
H         1.98796818688052    6.83309371829683   12.63453421995584
H         3.92760306707274    9.18467704955165    8.27193921459957
H         3.38385303580970   10.71278075589691    6.39057880074097
H         1.66952893387693   12.46081196198753    6.68745109107600
H         0.50002847238989   12.69358402433611    8.84170255365663
H         1.02110756545756   11.17692455781662   10.70863764828646

