75
CSD_code = WEQFOO | q = 0 | S = 0 | Stoichiometry = C22H43IN4O2P2Pd | MND = 4
I        28.85464724201174    2.90281055317988    4.09681467119120
Pd       29.08986790510723    0.40381116161240    4.74299339132063
P        30.78828128026587    0.58450540261471    6.19197532342785
P        27.51522005887896   -0.43621225152048    3.40208202107571
O        30.91417883147946   -0.91149416916728    6.84393404267117
O        27.68752596222342   -2.06491534038868    3.53284154260157
N        32.30154585598438    0.91337788777378    5.56827533379200
N        30.78146464378400    1.45076014125610    7.63401217423954
N        27.51818375656360   -0.33851078524534    1.72904052074383
N        25.92156520839460   -0.10689870538322    3.76559504777762
C        29.29751607054023   -1.50677362648815    5.19857455961439
C        30.19618026533177   -1.89234339609814    6.18137103845693
C        30.36574767893779   -3.23255383871943    6.49690874250387
C        29.62028897353042   -4.18022644556445    5.81356111186640
C        28.71955720228644   -3.81634193664209    4.82503405850314
C        28.56694321855599   -2.47196007162091    4.51907024644731
C        32.43291591114211    1.30796048768782    4.17110551275139
C        31.94878228411402    0.24990015797250    3.17718756790186
C        33.46745324505122    0.34220949607928    6.22095183393703
C        34.53436134950520    1.38749309738989    6.53096487747222
C        29.64792223394166    1.15043755545639    8.50256170748079
C        28.29115762419685    1.54201803690565    7.91692504879140
C        31.10821074120741    2.86823004824045    7.52285818029582
C        31.86657006482863    3.35608654668758    8.75260925000038
C        28.67419934455303   -0.94768385010001    1.07503131899507
C        28.27157366980850   -2.19693120081951    0.30046090504856
C        27.08746176559592    0.93841498598589    1.17627628665290
C        26.34173044023034    0.75498011914935   -0.13895168369790
C        24.90651561996389   -0.97562702983707    3.19056921079205
C        23.70761126362777   -0.18880615724975    2.67216229141887
C        25.66227649089070    0.46470677791201    5.07683722507848
C        25.78601615377999   -0.54029486390274    6.22269044587494
H        31.06992506949440   -3.51882168334770    7.26220017733715
H        29.74559749739468   -5.22452304092801    6.05483421555776
H        28.14201201622729   -4.55636315197848    4.29372605582691
H        31.87080874187885    2.23433166560767    4.01123644780104
H        33.48757528579852    1.52372752378014    3.98755775658292
H        30.84179850228578    0.18936959224085    3.18966824762609
H        32.25675008863634    0.51713548467828    2.16823881351034
H        32.36065352947202   -0.72888594791491    3.42578210593690
H        33.11911686079088   -0.10129201514795    7.15702090874685
H        33.90220254562403   -0.45428888484816    5.60213053903718
H        35.34836067258966    0.92242451504710    7.08166751518244
H        34.94169855640468    1.81973400525821    5.61987067218824
H        34.11482749657035    2.18847626276389    7.13235515435030
H        29.66171372601469    0.07313599791394    8.69398965273674
H        29.80661500763028    1.66284451604627    9.45474831097328
H        28.22761585664532    2.61597813825777    7.75008349898374
H        28.13294609799753    1.02442019466383    6.95417340240622
H        27.49501892295372    1.25016283662672    8.59789979959332
H        31.73820624210187    2.98574773132651    6.63735439530489
H        30.21274579501187    3.48141011229723    7.37429464042265
H        32.69523521959278    2.68766211435134    8.97307852549643
H        32.25453863254865    4.35450022584810    8.56875625169473
H        31.21966794204447    3.39870301983512    9.62526874136683
H        29.13853132907107   -0.21867906042593    0.40321052949375
H        29.42559831703000   -1.22998499808055    1.82814517960937
H        27.83759019191194   -2.92564339871495    0.98030142046946
H        27.53644412498471   -1.95491325314526   -0.46196766185170
H        29.14430012130429   -2.63662538811530   -0.17687059282349
H        26.42832130724945    1.40547476338141    1.91311903086232
H        27.94295163782902    1.60959721715603    1.02387740037579
H        25.93673862162299    1.71022346287155   -0.46297114472709
H        27.00723001541066    0.38452075426178   -0.91477113501593
H        25.52467852566600    0.04884510233249   -0.01417378029081
H        25.38599977609143   -1.50384724911514    2.36189188855292
H        24.56856414794758   -1.72352816888322    3.91835289410853
H        23.15824755456401    0.27260434349884    3.48909673312793
H        24.03371826378330    0.59307938130097    1.99201303936085
H        23.03319050629071   -0.85779222677640    2.14334766690943
H        26.38964904787597    1.27599873833011    5.22968686498611
H        24.66381610658185    0.90914600144181    5.06971338131560
H        25.56106978984189   -0.05607471358902    7.17003478797709
H        25.09753481622899   -1.37223594800981    6.08986852545860
H        26.80542313664039   -0.94018335926829    6.26253533840864

