83
CSD_code = WEQFII | q = 0 | S = 0 | Stoichiometry = C30H47IO2P2Pd | MND = 4
I         6.08594410129867   -0.02433708816351    3.20286681421328
Pd        5.99183391002039    2.52564875579951    3.61226869997474
P         5.17748548522913    3.15795746412096    1.63981576164298
P         6.78515150796073    2.56559809999922    5.69131716835424
O         5.10092190570021    4.78588143385654    1.70592709279253
O         6.73496347142940    4.13211805988570    6.14305261262484
C         5.91684916204293    4.47045110946852    3.92656005100611
C         5.48307395674151    5.32945018587006    2.92662039722193
C         5.42572832008326    6.69845624446581    3.13629702794404
C         5.80883328214188    7.20291357628670    4.36895164994462
C         6.24528547044093    6.36686075575136    5.38444766289246
C         6.29616756903283    5.00138457512231    5.15139287779973
C         3.42373643145671    2.74383174137110    1.25808218307147
C         2.74740746683994    2.71743114594061    2.63533142890342
C         1.28127545667979    2.31848509604121    2.52386676122411
C         1.15859768520629    0.96446254886869    1.83091937340535
C         1.80125443225608    1.01647644893679    0.44818326042809
C         3.27554380351325    1.39798937856664    0.55697386791957
C         6.26182841018938    2.85907971269424    0.18508561488712
C         7.68446986653661    3.09024172238337    0.70635936345692
C         8.70428321953913    2.85425070295683   -0.40062080578090
C         8.40160671812795    3.75660650227997   -1.59444001518401
C         6.98650680388362    3.51050230861230   -2.11189301892320
C         5.95881279983389    3.75523283786426   -1.00901116776907
C         5.75698346276077    1.73971482224342    6.97185699595866
C         4.31004651037665    2.01671861402555    6.54945585035864
C         3.33671228224376    1.35952023704179    7.51997608795973
C         3.59909798075179    1.85270108220973    8.94102188825511
C         5.04048181500074    1.56663735069270    9.35525333800676
C         6.02087092432297    2.22953653748255    8.39001492489446
C         8.57284259452873    2.19183227674439    5.93266841564175
C         9.22245746664779    2.65917470213172    4.62337017218108
C        10.71700201407861    2.36409416605221    4.61095948857239
C        10.95735283386974    0.87395540255101    4.83495332431885
C        10.33946361243140    0.43070628520500    6.15762560219880
C         8.83824194136588    0.70885812187982    6.16780175522031
H         5.08521204757960    7.34937023668352    2.34644295843876
H         5.76653358713981    8.26717229690199    4.54135379863659
H         6.54460505122029    6.75997833398003    6.34329065413746
H         3.00127016561622    3.55164116744193    0.64560804938424
H         3.27263669354928    1.97922301359980    3.26965116767268
H         2.83846183393019    3.70247588023209    3.11218083765323
H         0.83314591903753    2.27397777712411    3.51876823893303
H         0.74271459013547    3.07474883201099    1.94681448312922
H         1.66002486624936    0.20218657919151    2.43108267837752
H         0.10686625153803    0.68586037076745    1.74293477361872
H         1.71268865076814    0.04438073683227   -0.03973436068117
H         1.27866450882400    1.75237256589652   -0.16891395986573
H         3.72013288458585    1.44202358973226   -0.44019280537910
H         3.80285483424012    0.62922956653748    1.12758781705809
H         6.14985942382944    1.80327047142810   -0.09123432601668
H         7.77095750407640    4.12210587112112    1.07112183161477
H         7.88020685461995    2.40923694983366    1.55405056001810
H         9.71162989628684    3.05197041072309   -0.02827737997383
H         8.66037633220071    1.80838242223105   -0.71319903193508
H         8.49903833081019    4.80213609949638   -1.29164853427037
H         9.12416925921782    3.57063457509839   -2.39136932584653
H         6.78051592999352    4.16795993228038   -2.95906278396623
H         6.90347879032116    2.47810336894673   -2.46023931212984
H         4.95110656868604    3.55769684802845   -1.38295836787306
H         6.00093267781693    4.80086421437618   -0.69395417850081
H         5.95089178678335    0.66243558558873    6.89732049579980
H         4.14007313191726    3.10112474659426    6.53724608556165
H         4.14507158786052    1.63275868902667    5.52657670950300
H         2.30889756366102    1.58668021244982    7.22937680568390
H         3.46590552615424    0.27545900462132    7.48008188960851
H         3.41581005591302    2.92895107593578    8.99011655494277
H         2.91173936264343    1.36461086541961    9.63463635029248
H         5.21631083634605    1.93426296501614   10.36835467636845
H         5.20902579572034    0.48697066889770    9.35599937178846
H         7.04897755716882    2.00229680923503    8.68274607357805
H         5.89378328015079    3.31442535349306    8.42533718441350
H         8.94345593586264    2.79305174427057    6.77369546325114
H         8.74413853262360    2.12057073220080    3.78413365132804
H         9.04546588648796    3.73397893719666    4.48406304592108
H        11.14787352962206    2.67572279756660    3.65708582447518
H        11.20625891860842    2.93674169110796    5.40318984868744
H        10.50453297104626    0.30611105421911    4.01933194877049
H        12.02891404352269    0.66599416585271    4.83568189422456
H        10.51214364139529   -0.63605297970479    6.30948743400067
H        10.81588930162977    0.96997132377229    6.98080805562878
H         8.41135504465147    0.39680128526079    7.12398920589419
H         8.36058758338197    0.12300824424864    5.37832544240645

