85
CSD_code = WEQGEE | q = 0 | S = 0 | Stoichiometry = C43H30F5IrO3P2S | MND = 6
Ir       12.88719401434250    0.98000919492821    2.35492699011073
P        12.95411616272042    3.02305269970026    1.11203161572444
P        12.13635897404129   -0.48690679675273    4.06639113772397
S        15.23641249118550   -0.04341112722281    2.77673391204433
C        12.98263900695674   -0.17553619667664    0.88883471613588
O        13.09948266701395   -0.91643468185203    0.01951115636301
O        11.43763704822237    2.19862958011067    2.85420610240424
O        12.42548056765128    2.20696324542954    3.78828899997228
C        11.41764721148908    3.26030205157161    0.15414408876434
C        10.76357090932428    2.14926350617283   -0.36505722465726
H        11.15900970613115    1.16178388586496   -0.16787828984875
C         9.61321187402408    2.29870450613213   -1.11699247165588
H         9.11190667401000    1.42733537554357   -1.51193519714534
C         9.10393400889160    3.56338348705342   -1.36152721034539
H         8.20365779051201    3.68210243344796   -1.94588317040016
C         9.75152287974801    4.67501375859405   -0.85044552257642
H         9.35783294667723    5.66374632284312   -1.03633318698322
C        10.90276257160554    4.52803082174259   -0.09697055027498
H        11.39182003861058    5.40423594315433    0.30537509664842
C        14.20378751109565    3.14231283311159   -0.22125148859624
C        14.11752208609707    4.13712890875340   -1.19010084828241
H        13.31564408798551    4.86042555806063   -1.14960606909774
C        15.05570562816235    4.20087969523875   -2.20288728632024
H        14.98365223663165    4.97448464779191   -2.95308711909718
C        16.08485783526780    3.27377226261352   -2.25866371240639
H        16.81478659744768    3.32618587300891   -3.05283427966432
C        16.17347960987961    2.28133057548000   -1.29777949594961
H        16.97304003929768    1.55695197245903   -1.33726183636575
C        15.23390304115364    2.21352055346036   -0.28366502325559
H        15.29993829273456    1.43930052563908    0.46890987597243
C        13.14201940013807    4.59429431601106    2.00108242776473
C        14.32707861270740    5.31807826037589    1.90264734972462
H        15.13748008337767    4.94488000726828    1.29356257762844
C        14.47281418248032    6.50522661577988    2.59581002455754
H        15.39638732973499    7.05946131719983    2.51866170270047
C        13.44473193439326    6.97643093265814    3.39552080207973
H        13.56583263681500    7.89899835467615    3.94378399381924
C        12.26403430816691    6.25901880923907    3.49534978318989
H        11.46093512835039    6.62192895762435    4.12029063830052
C        12.10810880076527    5.07314481775633    2.80170881108915
H        11.18994622675564    4.51034622131506    2.88407383028224
C        10.42665564138385   -0.06247263195305    4.50699556811948
C         9.99790321835191    0.15066853827311    5.81051935911405
H        10.69361232539489    0.06924240181191    6.63359801786740
C         8.67256314253496    0.47007331891063    6.05330819543145
H         8.34123062074936    0.63683361553802    7.06796754934622
C         7.77632376789904    0.58126975474644    5.00393805628709
H         6.74585088939487    0.83875850167774    5.19980798636155
C         8.20227562312382    0.36745610687919    3.70200765123473
H         7.50597356812743    0.45923923155397    2.88152696124752
C         9.52212986397503    0.04618058104801    3.45318507886604
H         9.86786822149297   -0.11369642067359    2.43949582410180
C        12.00526829962094   -2.27057394368368    3.70739526937027
C        10.93371561951155   -3.03009926074137    4.16487369547984
H        10.14676445106226   -2.56318221177467    4.74031944638129
C        10.87522886690448   -4.38334892531765    3.88344622120324
H        10.03978204989882   -4.96807880840453    4.23983787582769
C        11.88304511915461   -4.98759544943246    3.15005304329438
H        11.83310763170964   -6.04425161056378    2.93316723189173
C        12.95469457662956   -4.23544106644024    2.69632056960756
H        13.74403240340484   -4.70290083362811    2.12729647177024
C        13.01549838392189   -2.88149795180466    2.96974807660905
H        13.85320294822138   -2.29249083481547    2.62214769741677
C        13.05232447911746   -0.44571351539915    5.63644233666167
C        13.16796724920216    0.76490740588941    6.31998294493176
H        12.73707314075588    1.65872251930104    5.89289582100874
C        13.83672563001782    0.81659058977053    7.52864594573347
H        13.91638893397387    1.75562560169927    8.05692763433307
C        14.40400050997663   -0.33105043386895    8.06102749100216
H        14.93007086498178   -0.28755094277882    9.00272578612726
C        14.31001540372651   -1.52917862228955    7.37331791058856
H        14.76742221824917   -2.42046668860015    7.77500774582193
C        13.63914523900761   -1.59147839932094    6.16442007852671
H        13.57741640961350   -2.52860631131539    5.63154422491539
C        15.78077116410080    0.91349046611762    4.10836046484274
C        15.69029425546411    2.30854264632833    4.09464201200060
F        15.20500635498440    2.89907489159219    2.99240847782954
C        16.08544020036768    3.08605845605744    5.16787709341833
F        15.95980773818403    4.41851306404251    5.12297258674714
C        16.64005042235954    2.47475571949210    6.28870135609171
F        17.02602078175145    3.21041038292476    7.34024510364615
C        16.79856856317756    1.09179806571382    6.30611654784664
F        17.35000540173602    0.50308594640807    7.37558816546071
C        16.37633304107658    0.32673712316509    5.23115164248623
F        16.53654161323346   -1.00133009165812    5.28005713307474

