67
CSD_code = WEQGAC | q = 0 | S = 0 | Stoichiometry = C27H33IrN4O2 | MND = 7
Ir        4.61963974432070    4.11614406118281    7.89214299860776
C         2.91635541602957    6.88543275930273    2.12948979386202
H         2.72744375622895    6.12495739500173    1.35847720127277
N         1.64063172154007    7.46486569281592    2.47090666334944
N         1.46650967449224    8.20833607711651    3.57201789014071
C         0.24063539139741    8.69048637225990    3.51151068381758
C        -0.39088467430511    8.26320294672113    2.32822887782438
H        -1.38473786179486    8.49580364387843    2.00361412771349
C         0.54015983217537    7.48933823024729    1.67492692831030
C        -0.31333283137753    9.55393773284012    4.58808109438326
H         0.42988890357089    9.68106907723194    5.37005514704343
H        -1.20812180768213    9.10152070341327    5.01382570119207
H        -0.58427349560215   10.53053141606582    4.18861882899356
C         0.47113889427303    6.79605908293950    0.36351718776987
H         1.29690215335019    7.10886699999263   -0.27591709413683
H        -0.46798349307416    7.04203610909239   -0.12477880015563
H         0.52188290029807    5.71382666807995    0.48970114451914
N         3.73095524671867    7.87862800347865    1.46538203739885
N         3.80521241510748    7.85244462778160    0.12684358896711
C         4.53714685005891    8.89353584310045   -0.22509108621134
C         4.93449695855867    9.61293363346399    0.91683392381087
H         5.53164205690578   10.50190351307409    0.94581513083235
C         3.65155745307459    6.23260369164736    3.28205744971846
C         3.04243397333174    5.95403344623462    4.48758358584159
H         2.02001701962386    6.22876038936350    4.68540599655165
C         3.78727190270208    5.32142605796668    5.48957667185119
O         3.31859326147183    5.01129085334806    6.67680214415690
C         5.14527232685682    4.96406211921923    5.26226870154544
O         5.74887444290270    4.37727591636488    6.27052698526551
C         5.73761967503486    5.24014296849106    4.02465370923429
H         6.76478804720566    4.96167627834794    3.84741236728991
C         4.98621694054941    5.86217155799571    3.05520190679822
H         5.43060277720758    6.07623875280431    2.09418844830646
C         4.12556688757966    2.41826960375962    9.24171141238919
C         5.55451451102455    2.60791613692737    9.22209399490766
C         5.83500631324129    3.90353896878660    9.73759171896335
C         4.57956612389806    4.53006144146329   10.07722694642663
C         3.53116180825633    3.61426960454287    9.75888253153564
C         3.40972183647858    1.14023367358830    8.95048560340779
H         3.33986677886338    0.54506037634583    9.86280602052907
H         3.93889998800052    0.55508108290181    8.20264992708251
H         2.40188754009608    1.33017085354192    8.59029287294840
C         6.57792756276857    1.56694995002989    8.90040457343265
H         7.44276621653365    2.01614284690145    8.41901471220077
H         6.17134920617338    0.80918006422248    8.23648417390554
H         6.91117115183596    1.07865843854172    9.81747956692884
C         7.19698159664507    4.43561930680317   10.04593922724026
H         7.53902752681809    4.04106923778719   11.00414778983221
H         7.19078049217368    5.52060044008001   10.10510495486671
H         7.90879097809403    4.13622247090052    9.28091996452483
C         4.41232000262076    5.82331727331645   10.80518150324863
H         3.46634676974357    6.29292355591672   10.54849236255255
H         5.21740694422508    6.51502847633155   10.57067246786012
H         4.42173710887241    5.64059411312145   11.88127998762901
C         2.08596925695649    3.80634222573870   10.09121680535301
H         1.45822621903541    3.16516984491911    9.47925016841731
H         1.78612316791916    4.83705883246596    9.92128710937925
H         1.90916778748839    3.56445676889421   11.14026372686804
C         4.39462122813435    8.93812184810622    1.98931542825474
C         4.84917368241857    9.19003259342416   -1.64900839565775
H         5.92712310330730    9.21010236226109   -1.80430476308981
H         4.44814721711266   10.16330901278167   -1.92977309637007
H         4.41058410414509    8.42644126065080   -2.28522870996848
C         4.46462548041140    9.21783532787461    3.44421577821822
H         3.48667900320998    9.07409217980579    3.90224976442037
H         4.79619346441485   10.24119677729269    3.60117889431011
H         5.16891337035339    8.54249042912146    3.93069504156664

