39
CSD_code = WEQKUZ | q = 0 | S = 0 | Stoichiometry = C12H23CuN2Si | MND = 4
Cu        5.48237040301280    1.65668951224843    2.08496369963071
Si        2.23262320738272    1.93845785143691    1.97968246347072
N         5.70280684017949    3.10621681177389    0.92032948010873
C         6.89346237079044    5.01445716155341    0.00334634729424
H         5.91151863261011    5.39843706080043   -0.26874948640827
H         7.38618933337239    4.66749543530553   -0.90531689120517
H         7.48578790568737    5.82339161264527    0.42183053560180
N         7.06645148515226    1.71868042081848    3.08638890141301
C         6.77076379308129    3.86767836820790    0.97524702047311
C         7.82261726810251    3.66589547385690    1.86493287552549
H         8.65049812460369    4.35716485695759    1.80577533121443
C         7.93789733852393    2.65975474956069    2.81775480545486
C         9.17609422652105    2.54244176460224    3.67942951592567
H         9.98654930819165    2.12157969362664    3.07885431203218
H         9.50251483632833    3.50869481057775    4.06065849288823
C         8.73369197071446    1.57711615498715    4.77867501033425
H         8.38257791460260    2.13481528792161    5.64777512545742
H         9.52434860845610    0.90080744718498    5.09697125632133
C         7.55912073850541    0.83285622855449    4.12562967355649
H         7.88988036764393   -0.10902856071752    3.66850629188137
H         6.75960769212138    0.60155155078694    4.83349242704405
C         4.42633287027459    0.19441158752550    2.71281301960770
C         3.76813269023730    0.86133212593177    1.68093913359481
C         0.73487226726834    0.75847110603278    2.10956473578838
H         0.57852690859187    0.21298075432190    1.18399099761341
H        -0.17711362278639    1.30649269398801    2.32528013862538
H         0.87541806077712    0.02768014262619    2.90004913594306
C         1.95978016867759    3.13452088782123    0.51637626346149
H         2.66361470368767    3.96033078057477    0.54577132050224
H         0.96014892362928    3.55764963883215    0.53911037439515
H         2.07854069629115    2.62942556284604   -0.43736979913994
C         2.41608096783756    2.93256163385511    3.59585642545133
H         3.35962807984424    3.47068662321367    3.61128425373409
H         2.39455858214966    2.28243875971413    4.46498000511710
H         1.61629035185554    3.65794643014062    3.71161212088604
H         4.91679639559314   -0.75343282622078    2.52971791429413
H         4.10587777351644    0.34193202412953    3.73513031424343
H         3.84297695618543    0.40470116075139    0.69683423109124
H         5.03836486078137    3.37911722123001    0.20368222677441

