103
CSD_code = WEQLAF | q = 0 | S = 0 | Stoichiometry = C31H64N4Si3Zr | MND = 5
Zr       -1.12698567446807    4.55644782972290   10.51505875653532
Si       -4.04538621615897    4.33062214607696   12.05975220640923
N        -2.90365920734389    5.34869881428609   11.30494548317249
C        -3.60332185104890    6.07368095826383    9.07712357290148
H        -4.39828243347425    5.32495693730633    9.08564993398258
H        -3.93669012187094    6.92951998282418    8.46919052712096
Si        0.43464085930146    7.53533044885665   10.64207052676378
N         0.07876528882864    6.10139626283785    9.78597149305453
C        -3.34770871141450    6.49354747464312   10.53761242557548
H        -2.57312954548213    7.27620989861470   10.55274935808469
H        -4.27330373927670    6.93088590671551   10.93744150560588
Si       -0.08560865786184    2.14663884816772    8.50315988897864
N        -1.41204228969868    2.92755446997921    9.23560446207890
C        -1.48496637974462    6.45233831517484    7.93134511408781
H        -1.72191627597619    7.44433630019107    8.32243000259890
H        -1.58963349411244    6.47607717090460    6.83561164743823
N        -2.38510376472072    5.47097692890396    8.53707917627888
C        -0.03299439670062    6.13079731142459    8.34221014550469
H         0.24525010142696    5.14820668919489    7.92558952999113
H         0.62472113271025    6.88492524205559    7.88669810878558
C        -2.65760324510646    4.32318203076190    7.67213304890519
H        -1.84562102817408    4.21835949056197    6.94918331562147
H        -3.60329783855461    4.44606058295279    7.12105867540608
C        -2.67155466178226    3.04494881911834    8.53526549688115
H        -3.50021020064753    3.10944813565411    9.25970242285694
H        -2.86862602574541    2.18560253334278    7.87777011148609
C        -3.26979956342778    2.57358779007269   12.04912971414944
H        -2.33525617674905    2.56621253189551   11.46978046141236
H        -3.94833009077744    1.84533938173250   11.61485876115042
H        -3.05743574999717    2.23284243614684   13.05657497727846
C        -5.76069123505379    4.17262065683661   11.18098453388044
H        -5.68265776154929    3.65437915551183   10.22862515664162
H        -6.19330244099387    5.14955700058772   10.98750020822488
H        -6.47180899637908    3.61889528311957   11.78426846516820
C        -4.43775034461329    4.89283629502595   13.88396419440858
C        -5.09098377489055    6.27601897629083   13.87231243732315
H        -5.31022275996859    6.60689413604491   14.88767520195617
H        -6.02384251738877    6.25963743657057   13.31376728522962
H        -4.42590377920365    7.00410927563151   13.41352000664084
C        -5.37679676921182    3.91244153684613   14.58682468839831
H        -5.53162910221490    4.21080549124814   15.62386657254504
H        -4.96268607954724    2.90734349253073   14.58184239920026
H        -6.34703429823957    3.88406258373336   14.09847153600381
C        -3.14353246656257    4.98713267566482   14.69407647531036
H        -3.34783271686769    5.35898431029309   15.69870463766526
H        -2.44235745680868    5.66721473932152   14.21365439640311
H        -2.67417838969497    4.01023193193044   14.78882019317880
C        -0.20927556681210    9.17317647184316    9.84136995573701
H        -1.29037801571066    9.26168173484638    9.90993568214682
H         0.05878440474803    9.23028366360754    8.79072201372103
H         0.21112752143427   10.04655659972198   10.32823999302838
C        -0.41193155798888    7.42879503691450   12.36352020631255
H        -1.19335950352256    6.66442164283103   12.36452246949578
H        -0.86321014481632    8.37918062391592   12.63062495018584
H         0.29689093950105    7.18998475460491   13.14892102606002
C         2.35563596528072    7.77442734392733   10.85546454890758
C         2.68076339710870    8.93141572409990   11.79938819662775
H         3.75816083792888    9.01453770817387   11.94393638389954
H         2.21871409898882    8.77981255783228   12.77138382996177
H         2.32257919000376    9.87482317130926   11.39591746313909
C         3.00725291224298    8.05087450415738    9.49943348989038
H         4.08442158463937    8.17913522364565    9.60955490913870
H         2.60373272495780    8.95580827436869    9.05180640931393
H         2.83300036321954    7.22059611023042    8.81871916162177
C         2.96744295964989    6.49293172053943   11.42273830427596
H         4.05414454916023    6.57227659231806   11.47075723842675
H         2.70909703811556    5.64388988525670   10.79124709614214
H         2.60036184960117    6.30468080664241   12.42948707280318
C         0.14911561311566    2.38618566993104    6.59491693383187
H         0.41544785422147    3.40860797841875    6.33758050052316
H        -0.75591253584873    2.13462414432351    6.05002706134140
H         0.94029421644178    1.74812838596950    6.21395421880040
C         1.43924678401789    2.96920364899184    9.32250022563043
H         1.14454400566027    3.90295728167157    9.82406160793947
H         2.21004655663157    3.19470867353612    8.59188779453639
H         1.88527308050410    2.31531674353885   10.06242073870767
C        -0.13092927842935    0.22289060705544    8.78163111481185
C         1.27937947807111   -0.36531194149454    8.78636491133865
H         1.24000360552523   -1.44943728400747    8.89325233529491
H         1.85817076045199    0.03331655097249    9.61529823461658
H         1.80182221177849   -0.13506101475868    7.86074750814073
C        -0.94472287903708   -0.47409695101333    7.68917551125314
H        -1.01516975219082   -1.54322693177316    7.89093164458893
H        -0.48353137332665   -0.34474995973839    6.71379110515465
H        -1.95528860181844   -0.07291822777093    7.64659607039686
C        -0.78801096248788   -0.07101825467008   10.13018115417959
H        -0.80299822964687   -1.14374309123390   10.32508536323499
H        -1.81247571062160    0.29520987268186   10.14203170932215
H        -0.24286118848316    0.41680064549307   10.93431759646100
C        -0.06523949701688    4.06150968525925   12.46737538546346
H         0.61094493800104    4.91697980226457   12.60192902592114
H        -0.87907920640817    4.11808743436157   13.20479558497662
C         0.69288588463429    2.82262307969511   12.65712439252347
C         2.08141900261417    2.77728970196485   12.44405039743886
H         2.59426658083329    3.67872429424369   12.13532096647569
C         2.80825015871183    1.61949844746160   12.63487221578395
H         3.87518058474682    1.62217343850175   12.45667989222996
C         2.18507611313712    0.45915776538771   13.06705189306012
H         2.75409081444605   -0.44575087103062   13.21959610781173
C         0.82388545120454    0.48734213049690   13.32410600142037
H         0.32771173802237   -0.40211752116299   13.68748936718546
C         0.09416941898940    1.64365823551050   13.12795106749306
H        -0.96206033692908    1.64305103455619   13.35878472299961

