81
CSD_code = WEQLOW | q = 0 | S = 0 | Stoichiometry = C36H37IN2O4Pt | MND = 5
Pt        5.42184133924653    6.61553876928887    5.32770644003436
I         3.43937241810126    7.80502653367727    3.93725859058134
O        10.51593388292101    5.13393228773933    8.51548776829019
O        10.01178255619033    3.74222215241420    6.38989270779634
O         9.99612614714528    4.76038698210936    3.73473796601619
O         9.64981720239558    2.66903689817460    2.98973829989041
N         7.41777620786128    6.89174240640752    3.13650862445609
N         5.95297703911637    5.36542234156083    2.62882712420989
C         6.33886693226737    6.23037997141191    3.59472355615102
C         7.73014433971755    6.46407902933649    1.86817711499303
C         8.72515839186339    6.83571495868980    0.97758421007459
H         9.45284098903329    7.58778496131320    1.23232019307715
C         8.73622160252443    6.20580205994640   -0.25247578742285
H         9.49313775157365    6.47077403778152   -0.97442426509112
C         7.78752389750382    5.24138150111035   -0.58814814093561
H         7.82494755054322    4.78425393187244   -1.56516935492901
C         6.79582288055226    4.86062745354873    0.29633573963728
H         6.06292195212043    4.11861608402977    0.02048837524406
C         6.78022337950175    5.48208484923673    1.53592317048317
C         8.16337685079374    7.89825064237231    3.85490852124358
H         9.18030436357264    7.52690176910360    4.01881351094803
H         7.67697959113482    8.02399805468689    4.83298194479478
C         8.17559682958600    9.21057448278354    3.11456304173696
C         6.98603015660138    9.75003682846610    2.64177512737673
H         6.05442626457960    9.23139408260904    2.81133840462410
C         6.98576867669621   10.95276158362736    1.95993184602625
H         6.05448094913928   11.36111989019338    1.59768416348533
C         8.17467878589680   11.63086815089783    1.74934824445836
H         8.17549786852987   12.57111820545209    1.21820017448238
C         9.36272963571993   11.10246652148092    2.22476917595268
H        10.29227552040597   11.62936781056257    2.06579232120797
C         9.36390968785315    9.89558297320704    2.90232767338629
H        10.29233655339651    9.48294804065956    3.27225868236236
C         4.83456191371934    4.45319767169078    2.75546937924814
H         4.85872607715644    3.77057983335146    1.90355657412567
H         3.89854238088047    5.02144274864692    2.72487095405567
C         4.94736312454146    3.69046605081940    4.05108328001361
C         5.87991204595488    2.66791243628358    4.17203530634619
H         6.50253727546485    2.40653456508614    3.32618301007621
C         6.01239118348799    1.97813033676060    5.36465497392999
H         6.72565283435022    1.16984604505168    5.44308768529086
C         5.22234970109881    2.31331569412420    6.45092822968518
H         5.32758372208523    1.77435799250217    7.38056818251143
C         4.28664646485312    3.32617587346570    6.33756136729711
H         3.64602669052696    3.56313008888233    7.17382470346326
C         4.15215379479999    4.02578475990619    5.14550058513140
H         3.34982086969415    4.74532509195066    5.03236113542146
C         4.33262091378688    6.66994313056850    7.20653184449230
H         3.26549894200398    6.73068415892091    7.01427827074270
H         4.65102751313866    5.84430742394728    7.83685550592212
C         5.11982928274268    7.79437990526242    7.11965844246002
H         4.67383270671312    8.74414781310475    6.81710829015053
C         6.44790967804974    7.88900305480304    7.83355630114856
H         6.94483051792463    8.83125192957643    7.57555233954366
H         6.27032187715307    7.90760669849957    8.91493536655537
C         7.35191272228889    6.73268281997099    7.46969138152487
C         7.05411667607130    5.97398633333371    6.34334406505445
C         7.92679502195468    4.95182285749278    5.98366313704142
H         7.71050562317273    4.35546272869188    5.10968963228689
C         9.07907509076750    4.70083823340758    6.70559201842339
C         9.36638462827661    5.46381561306635    7.85282310176457
C         8.49164641936744    6.46919392863724    8.22282998951513
H         8.68723674018886    7.07353929619431    9.09584322980962
C        10.86897157787376    5.89082116279662    9.64331164286062
H        11.01173210604468    6.94810918543567    9.39383214808844
H        11.81247381978841    5.47468788068789    9.99350340406610
H        10.12081944934603    5.80577905934309   10.43966588237953
C         9.77017401635329    2.90453652358361    5.30327732217975
H         8.80357966689117    2.38647897865673    5.38751130717846
H        10.56557927520869    2.15298003188119    5.32812933060650
C         9.82587789860335    3.58868860089494    3.93781424941939
C         9.72866298654174    3.09699639279354    1.61558720731439
H         9.27433871259425    4.09242252502329    1.54733963314588
C         8.94170075598715    2.08940667128067    0.79238899899123
H         9.38818911320439    1.10328357683929    0.88879149055758
H         8.94907921265465    2.38670699873325   -0.25158637621542
H         7.91177884217117    2.03952477458212    1.13546528760301
C        11.18770973977105    3.17898402531028    1.18419357020443
H        11.71765262943138    3.90092675073754    1.80051598593998
H        11.24333837896440    3.49722152247869    0.14737064291892
H        11.66450119227392    2.20698397919425    1.28706482509222

