81
CSD_code = WEQLAI | q = 0 | S = 0 | Stoichiometry = C36H37ClN2O4Pt | MND = 5
Pt        2.58852714349180    3.27746867829885   12.28673053379165
Cl        0.18330806684710    3.61968384524857   12.48468610419253
O         7.77314659207390    3.93494201012103   10.56836302178600
O         5.92859096895091    3.93681688514825    8.40048976595077
O         6.22464454044880    6.15468737648251    8.21270124140663
O         8.57700044229892    1.80644736794519   11.81786241370698
N         2.74508540617851    3.20721847401715    9.28604827557906
N         2.03241804001998    5.13433966463461   10.00160416499678
C         2.48286181980512    3.92488280594871   10.39765198381343
C         2.44096986777780    3.94675989272493    8.16885914244846
C         2.51276861858213    3.66583911171595    6.81265248290448
H         2.85327795474515    2.70917850595601    6.45322123768807
C         2.12731623721799    4.66355279391750    5.93757339273149
H         2.16879823593714    4.47993407302944    4.87492826548983
C         1.67935976661525    5.90192066078512    6.39450426196350
H         1.38004781624171    6.65052230888191    5.67684080832912
C         1.60183425622531    6.19119624629870    7.74354917101305
H         1.24549217547321    7.15080714734292    8.08413206778390
C         1.98798569640487    5.19692677970506    8.63086612365825
C         3.26016678916266    1.85623867726726    9.24675628859856
H         3.84104866709310    1.69916147349614   10.16216764418066
H         3.93107935306976    1.77474348468168    8.38921545148984
C         2.13609758741314    0.85394886707361    9.17299405427092
C         1.93848273930842    0.05818214453334    8.05476247180387
H         2.61555999739138    0.12987328916439    7.21517429102895
C         0.88217438458223   -0.83662507697253    8.01439797814748
H         0.73558222361188   -1.45504147623545    7.14081340044189
C         0.01322420821566   -0.93539546941683    9.08685800249087
H        -0.81383069714459   -1.62898810817433    9.04999583082864
C         0.20683844198754   -0.14356514977345   10.20745788758221
H        -0.46972531578897   -0.21378610190752   11.04577573278036
C         1.26611272532221    0.74228460476847   10.24976468920490
H         1.42274011713205    1.37132557920848   11.12338908047196
C         1.71280294483980    6.20384274014822   10.92569622149386
H         0.88118993086475    5.87776392253084   11.55943324049041
H         1.41121590183599    7.07910580805606   10.34771642062359
C         2.93016554122211    6.49396205567411   11.76660089828497
C         4.02372276486208    7.14194988869301   11.20728173357031
H         3.97953947346299    7.48214700450368   10.18137670489706
C         5.16828971215459    7.35701710366876   11.95495510003343
H         6.00520980698389    7.88191137186547   11.51601206277848
C         5.23413279156354    6.90878394577581   13.26369991168311
H         6.13017082375694    7.07078188789690   13.84428195626775
C         4.14650516090429    6.26622251330125   13.82919070083381
H         4.19090060187430    5.94110224609958   14.85773783109433
C         2.99470685552843    6.05263517507372   13.08543838541670
H         2.11482837019890    5.62360018581794   13.54979062337028
C         2.71701800726168    2.93006133028280   14.42215435929110
H         3.64985193868362    3.34563003911934   14.79331239344713
H         1.80918857250752    3.29187940712449   14.89331309918786
C         2.71752586038835    1.71358849563793   13.78070928205652
H         1.78996814199955    1.14034346560501   13.73698167212334
C         3.98971772707375    0.93478070842057   13.52044155453902
H         3.76135303742222    0.04160953311712   12.92882473117185
H         4.40089353429228    0.59206535046167   14.47620342134874
C         4.56901026987213    2.91959850124362   12.12679882566967
C         5.00817545856780    1.77265950686786   12.77975705209293
C         6.34157162517906    1.38225478805039   12.70675900239987
H         6.65153106572805    0.48902526740207   13.22768210482720
C         7.25321378779734    2.11513650479940   11.96641090296194
C         6.81602045268762    3.27688203647880   11.30188813770705
C         5.49549292859474    3.67237221128833   11.41079846501927
H         5.16499383855209    4.57003811766747   10.90973910948725
C         9.05442736121620    0.63322195387721   12.42239083127751
H         8.95764501144496    0.67035227492301   13.51333200252176
H        10.10956455088121    0.57497664536073   12.15903816193095
H         8.53853345756137   -0.25627602780443   12.04429940867808
C         7.42225175535793    5.12123377857975    9.92494827416543
H         8.35540395244483    5.51955161224602    9.51433504007796
H         7.00721519073395    5.86229458203614   10.62387695948952
C         6.43863213099198    4.96091714735531    8.76615908687793
C         5.34405304586222    6.21356608948156    7.07290319010054
H         4.50540867332122    5.53323591898914    7.26294341967173
C         4.85407300318354    7.64877385767891    6.96375235736457
H         4.34562179911818    7.94736819794303    7.87599361366385
H         4.16091816367478    7.73456911715427    6.13266766743860
H         5.69578964875660    8.31633791245720    6.80115428873115
C         6.08233266984008    5.76369840616926    5.81795605140838
H         6.94005013782863    6.40691384453190    5.63633993510012
H         5.41169095706821    5.81229985051316    4.96507952345922
H         6.42579669737485    4.73923235991958    5.93535702132091

