28
CSD_code = WEQPIR | q = 0 | S = 0 | Stoichiometry = C13H6Br2ClN2O3Re | MND = 6
Re        0.43463624552291    2.29979127768536    1.99193305211862
Br       -0.46309537852491    7.70286375584965    4.15771095209000
Br       -3.20501273673213   -2.32776492116864    1.81002778435593
Cl        0.62868284534551    1.71235025068444    4.28825665686196
O        -0.14616636923981    3.13711982627907   -0.92668474652559
O         1.94922323506248   -0.31365012847603    1.33606186550654
O         3.08543238095265    3.85923052398014    2.30274837300844
N        -0.77483227103315    3.82233708362052    2.85957961429322
N        -1.44912111970858    1.35109620366887    2.28289699532184
C         0.09235912980839    2.82142746730770    0.14984470909130
C         1.41248970221542    0.67900838093032    1.51069827558432
C         2.12038137645912    3.27869704527811    2.11378886097882
C        -0.39455061665150    5.07572901190584    3.06643364663999
C        -1.07820739718603    5.93055286981389    3.91620585032968
C        -2.20747807943062    5.47138538998695    4.58324886357817
C        -2.61300188061912    4.17443430063883    4.34725452369249
C        -1.88148501099775    3.36238488954548    3.47791798699864
C        -2.25784644968142    1.98569001052537    3.15568904180445
C        -3.38540218511729    1.35442740936685    3.68528979063109
C        -3.68801489683823    0.06080988291596    3.31497118489670
C        -2.85340291793939   -0.56412231183479    2.39631802808045
C        -1.74903630497912    0.11519579847789    1.90736586349707
H         0.48939285942398    5.41561233336564    2.54206887831349
H        -2.74809710064458    6.11179592378418    5.26216960652078
H        -3.48692015057420    3.79547625282225    4.84991114896003
H        -4.01839062601508    1.86192938080275    4.39365833720634
H        -4.54515901569992   -0.45173766486151    3.72230701660055
H        -1.08597726717659   -0.35797024289447    1.19442783956676

