141
CSD_code = WEQQAK | q = 0 | S = 0 | Stoichiometry = C72H60O4Si4Ti | MND = 4
Ti        9.46499917210202    5.46456320941770    2.22322127053136
Si        6.79569189453057    4.08662326102468    1.16389123395792
Si        9.46503549057330    5.46458086124258    5.55643479130481
O         8.31291208623859    4.27855646127730    1.65595656010277
O         9.46498691585215    5.46448274174053    3.95028930178435
C         6.32599416018361    2.28634958068519    1.54140771971558
C         5.99488334948859    4.17110380006588   -2.96270328805829
H         5.44024311445407    3.58977567069410   -3.68586310714348
C         7.40909809530665    6.03671741324643   -2.44077705474251
H         7.95982575514696    6.91235594829910   -2.75187911367898
C         3.57302997917136    6.50754316264472    2.32660353946721
H         2.55411086005948    6.67794741390651    2.00865646924923
C         5.67014369957314    5.33499849919567    2.06218163744424
C         8.36843463657305    4.00286732400739    6.09453451749108
C         6.71760421006148    4.52282135083309   -0.68695965506866
C         6.00795985036719    3.79018984993894   -1.63155992978068
H         5.46619277412742    2.90905247498216   -1.31735986880444
C         4.35503453409018    5.57328966220051    1.67134703670962
H         3.94454470656544    5.02432800930199    0.83549122666689
C         6.69498303458757    5.29527363904944   -3.36880806826507
H         6.68653646639188    5.59190683687776   -4.40784149687244
C         7.41689917723037    5.65119311126512   -1.11244865403602
H         7.97737578060174    6.22879655912779   -0.38295942382695
C         7.65807946406684    3.30339808544004    5.11925034547470
H         7.75314678705072    3.59870416332014    4.07949750027938
C         7.33419608710128    1.33489722776042    1.67391076845017
H         8.36338597829853    1.64124954669794    1.54527848623300
C         6.73246746383643    1.83878977858406    6.77459587980810
H         6.10151979976450    1.00276838770981    7.03977554797436
C         7.03917444879727    0.01865510053307    1.97934977248273
H         7.83876279394117   -0.70057748028012    2.08445230196067
C         6.18448040288850    6.07760730347316    3.12219228293290
H         7.21800250759571    5.92042119309216    3.42663564642236
C         8.24300539891638    3.58822639241674    7.41660608167770
H         8.79278798473629    4.10550379210928    8.18888464404524
C         5.00884992450082    1.87647180392734    1.71756561730676
H         4.21263833881364    2.60059448559210    1.62622404058100
C         4.70600164744262    0.56034703286721    2.01936568553018
H         3.67661627001252    0.26008177156395    2.15577624880120
C         4.09677578090761    7.22595338166365    3.38908350828752
H         3.48659182451446    7.95347482609271    3.90483942114403
C         5.40684661012228    7.01274065856802    3.78502161014314
H         5.82564688846905    7.57741546646895    4.60567037535590
C         7.43483235237980    2.51804684431496    7.75669430462956
H         7.35263770636144    2.20974517095368    8.78929454833178
C         6.84657933320372    2.23287528283868    5.45164807801031
H         6.30941020542875    1.70563085528453    4.67595482877462
C         5.72176669801420   -0.37213889037502    2.15281851883499
H         5.48599937783594   -1.39889094592658    2.39367588199984
O        11.06817683596940    5.05986410416896    1.65598084605391
Si       11.99301134276863    3.84190400752823    1.16386337592261
C        13.78695325149431    4.33522114743826    1.54144344312598
C        14.10688152528702    5.68407124115461    1.67390053161687
H        13.32699631424982    6.42222224679272    1.54526299023008
C        15.39430675289871    6.08666649398157    1.97932361152119
H        15.61740426664246    7.13873865727051    2.08447533497933
C        16.39141359786915    5.14113079875037    2.15286018217901
C        16.09171297574953    3.79521793059589    2.01937616683398
C        14.80047927672256    3.39945779430001    1.71758894009798
H        14.57147050264738    2.34786362430466    1.62621006322701
H        16.86642152217210    3.05386242086273    2.15581172293394
H        17.39849936876997    5.45030100272208    2.39371873470879
C        11.47470470842601    2.24297308825636    2.06219578476462
C        11.92591913843268    0.98491645521791    1.67137983538720
C        11.50784322830608   -0.15943922528473    2.32664966442722
H        11.86957726955045   -1.12707405023019    2.00857583888103
C        10.62381751952138   -0.06506168883353    3.38913099328774
H        10.29886600082232   -0.95726174589597    3.90489951081040
C        10.15337515656746    1.17608824799844    3.78502681309281
C        10.57440034428714    2.31710325873751    3.12219007293346
H        10.19387154910281    3.29077473949810    3.42673311383787
H         9.45510212703402    1.25645859501047    4.60581249685813
H        12.60637733155053    0.90387055462197    0.83535110432403
C        11.65428618111414    3.55620891484741   -0.68698643013461
C        12.64359267554757    3.30802660207430   -1.63160339156554
C        12.32022008096563    3.10614579577459   -2.96271920503547
H        13.10098000059452    2.91643305143184   -3.68587167255411
C        10.99662155132758    3.15038050253601   -3.36882010754441
C         9.99744531813442    3.39800542499152   -2.44076898743215
H         8.96376688749086    3.43719130483481   -2.75186423246375
C        10.32744952336988    3.59759397210602   -1.11246527330980
H         9.54700765636912    3.79420577104236   -0.38298184412392
H        10.74392969054294    2.99468650689110   -4.40783127164278
H        13.67754490230376    3.27928765300986   -1.31737452337631
O         9.01390347051476    7.05536285423364    1.65614095849527
Si        9.60628696781155    8.46526764917072    1.16399647475293
C         8.28210812867093    9.77229304812769    1.54138941707937
C         6.95401957243543    9.37492500324980    1.67392628943223
H         6.70469803888418    8.33045995347059    1.54523156214457
C         5.96166482755464   10.28856416279700    1.97940928433855
H         4.93898734544958    9.95574302953293    2.08448962242289
C         6.28195550673951   11.62486536031450    2.15286448217232
C         7.59741278685464   12.03825775006062    2.01947944247444
C         8.58575017153593   11.11790137300706    1.71760336893327
H         9.61098569808681   11.44534838097708    1.62634857230877
H         7.85210029118322   13.07985125990181    2.15596480628640
H         5.51067112489290   12.34243054633548    2.39378672875830
C        11.25023935628727    8.81589105254353    2.06214385090420
C        12.11415914197955    9.83568826638288    1.67131774311277
C        13.31428983116859   10.04575365426076    2.32652387721695
H        13.97139089354432   10.84284050258240    2.00848777849439
C        13.67461800931954    9.23292134625054    3.38896342268358
H        14.60972077069726    9.39762623195741    3.90474512389800
C        12.83495027590935    8.20493204835637    3.78485274916592
C        11.63628295553134    7.99905112685426    3.12203464563685
H        10.98317325465361    7.18290133538776    3.42677205766323
H        13.11439424532391    7.56015314579216    4.60573104229122
H        11.84409042864623   10.46550845571873    0.83534185210095
C        10.02306720566869    8.31482510365266   -0.68689938147240
C         9.74343706518760    9.29568639993567   -1.63155301475573
C        10.07977454383942    9.11649368661391   -2.96272885742233
H         9.85392025630837    9.88758954132063   -3.68587008999125
C        10.70338510658846    7.94812766124423   -3.36878022177321
C        10.98837857235809    6.95897749619592   -2.44072319711934
H        11.47110227195513    6.04408501042616   -2.75185473601351
C        10.65068705842998    7.14503749512906   -1.11236454679978
H        10.87034775230017    6.37070575367724   -0.38292295224342
H        10.96447919759224    7.80709699430483   -4.40782613221945
H         9.25145715694360   10.20556375597464   -1.31735269799242
C        11.27923292111748    5.24584072534903    6.09456433196797
C        12.24020626023254    4.98041110928604    5.11931482648882
H        11.93695297006810    4.91501482275148    4.07956156569566
C        13.57304661239246    4.81290490054126    5.45176229630525
C        13.97135191248366    4.91113780531191    6.77472136096161
H        15.01082854849301    4.78271859391091    7.03993923966277
C        13.03187506636197    5.17974499307516    7.75679355498160
C        11.70099306159541    5.34452722816037    7.41665052197541
H        10.97809147396277    5.56198865073332    8.18890579825279
H        13.33993152540238    5.26269239355963    8.78940786601749
H        14.29826242861855    4.61129506083940    4.67609915483360
C         8.74733134743312    7.14510071775848    6.09455270066470
C         8.49672756219686    8.11005533499943    5.11930236435664
H         8.70514728503921    7.88019594005086    4.07956789943521
C         7.97537069725388    9.34808422455559    5.45175225931666
C         7.69118423925071    9.64394413306929    6.77470502742750
H         7.28267541459929   10.60837391456866    7.03992098882062
C         7.92831123248550    8.69604188631474    7.75678294753554
C         8.45101968624707    7.46105557375721    7.41664156848381
H         8.62411123341566    6.72628082134574    8.18890832861456
H         7.70234156821114    8.92133373939786    8.78937673372934
H         7.78746947940731   10.07698772072636    4.67610753702584

