81
CSD_code = WEQTIW | q = 0 | S = 0 | Stoichiometry = C29H46CoN2O2P | MND = 6
Co        1.78035360749534    5.77468671962680    6.19115565253471
P         0.61199368907095    6.78221889650227    7.79864351492479
O         2.66344462624516    7.35088267482034    5.60667853388762
O         0.95923055814048    4.16953364211229    6.88168109892986
N         0.38647037183175    6.02178160099734    4.75476326803302
N         3.31507390679776    4.78790430461297    5.56810373348202
H         3.94405963953162    5.38255444988390    5.03259334871647
C         2.20126679078439    8.36857047691263    4.96961808289516
C         2.97711377312941    9.57393476535049    4.88260553453019
C         2.43709680953322   10.66623262955732    4.24851744261433
H         2.99490525350825   11.58774271404444    4.19590150103320
C         1.17232733834684   10.66184610456082    3.64317206866115
C         0.45707383916660    9.49434320677534    3.65629724466489
H        -0.50662581264042    9.44286794614409    3.16594273717447
C         0.94353107127278    8.34392071018667    4.29850570563877
C         4.37996398144438    9.61052436216482    5.48051777233151
C         5.23371986779755    8.52975967426256    4.80260338142486
H         4.79261810930028    7.55260274652461    4.97038183460519
H         6.24339340779300    8.53330269150773    5.20934087592498
H         5.28853481193822    8.70948603263984    3.73037930646910
C         4.31022621085215    9.34223327711575    6.98943454335656
H         3.72542146636290   10.11890811750667    7.47906466893248
H         5.31101720531024    9.34107899046638    7.41791209210890
H         3.84654992569792    8.37885937826922    7.17647755556170
C         5.08217909493599   10.95680285985747    5.27497486647535
H         5.18940140657399   11.18986564160179    4.21797111014683
H         6.07889577903170   10.90815486390779    5.70993804501942
H         4.54284371853788   11.76315426081590    5.76696027507045
C         0.66026323571693   11.90719937460973    2.98143071735281
H         0.60148355754905   12.72545003212039    3.69901208694142
H        -0.32949336174977   11.74336965159554    2.56194765690346
H         1.32928076757092   12.21677930269792    2.17846906006978
C         0.17676947767652    7.14599601331677    4.17382668920111
H        -0.66383984337947    7.21951855925508    3.47217049740141
C        -0.47272735504521    4.91926592971292    4.40804016320241
H        -1.31689502823976    5.23738928287532    3.78480522526457
H        -0.84163958406160    4.45376996042765    5.31980491963513
H         0.10485064365778    4.16848270249415    3.86484193170575
C         1.73235174400893    3.49520057730790    7.69981065529878
C         1.32466104777654    2.35037437584425    8.42441961528455
C         2.21653173866477    1.82653553381291    9.34427679573855
H         1.93199017705919    0.96459550739451    9.92715405180471
C         3.48337067544967    2.35796263338024    9.57939356116351
C         3.90141326810588    3.43572003733662    8.82048509865821
H         4.89215315639076    3.85131984049586    8.95039245877048
C         3.05022748404317    3.97295767155200    7.86947329518696
C        -0.04276930920215    1.73377808200526    8.16501495743376
C        -1.12996734673927    2.75734744360633    8.51350696451692
H        -1.09750952672243    2.99893290966091    9.57467024293376
H        -2.11662138594662    2.36217468564311    8.27788111292538
H        -0.96733136114510    3.66519206662376    7.94115338932550
C        -0.13681599567196    1.37657879703425    6.67481710208436
H         0.00552751897199    2.26761575408825    6.07073245864427
H        -1.11215483263744    0.95156422281595    6.44447586213668
H         0.62939237914939    0.64834035704248    6.41338220285830
C        -0.29573640265305    0.46273337204335    8.97927141394828
H         0.44411155103585   -0.30180604360840    8.75317375391087
H        -1.27822890301734    0.06627129848906    8.72873440021171
H        -0.27983563277821    0.66914829353719   10.04709565739192
C         4.36900802850600    1.74496916090111   10.62581581338089
H         3.94591893808071    1.89305464855089   11.61969427470810
H         5.35877506609837    2.19444298016148   10.60554035775134
H         4.47213898660342    0.67219960242774   10.46596385571791
C         3.39125840246599    5.06977182176715    6.95961991202392
H         4.24533267245014    5.68525433412055    7.24652596888063
C         3.35760303787149    3.41907748733171    5.07349095267237
H         4.29113979690026    2.92826644879725    5.37016478584277
H         3.28592932661715    3.42530758753302    3.98614856881902
H         2.52569657001699    2.84428667821473    5.47382018686615
C         0.80880368754826    6.11300151157747    9.49409934842339
H         1.84978523906258    6.21159248400083    9.79557615055855
H         0.55160728874058    5.05755900831460    9.49903492071336
H         0.17063395497468    6.65451318372657   10.19112697053250
C        -1.21575179912763    6.75903540002821    7.62024114387058
H        -1.55614980017609    5.73674472138546    7.48276683026365
H        -1.49231028541398    7.34302034876539    6.74444656932200
H        -1.68661995519054    7.18302545000258    8.50624628785547
C         0.85884259185139    8.57068621750545    8.13873320825715
H         0.13564540589972    8.92058140516648    8.87446625471305
H         0.74579513304176    9.13596419001720    7.21607541070058
H         1.86622471155505    8.72483336573947    8.51680243507018

