59
CSD_code = WEQWIY | q = 0 | S = 0 | Stoichiometry = C29H23N2O3PW | MND = 6
W         7.13580850441257    3.64482026073107   10.20585679652330
P         5.24254213880915    4.42535833169852   11.48800517117614
O         9.75754747545220    2.84694645588652    8.71491625832021
O         6.17388407265660    0.82285220248891    9.29924567950656
O         8.06451346125934    2.08516017049633   12.73522777986891
N         7.86291993904015    5.50637765442483   10.89357553461796
N         6.40850169651601    4.75708191470102    8.41240222575400
C         8.79877380455026    3.16873063091205    9.26250340572787
C         6.49711850101126    1.89059422063683    9.59383010707449
C         7.73742473669389    2.67841084321430   11.80474290167654
C         5.92539755782970    4.79733399210040   13.13370703827034
C         5.29716622798788    4.37456563035643   14.29730781466868
H         4.36447551759660    3.83263526020017   14.23116439118349
C         5.85104862684650    4.62889518392466   15.54075886525414
H         5.35484470789804    4.27599592132500   16.43241117867494
C         7.03501147583710    5.34154970701886   15.63583882401943
H         7.46737081672910    5.55191340999236   16.60263479145877
C         7.66214621877283    5.78506894161282   14.48860429758332
H         8.58566173456984    6.34263868132757   14.56184890275642
C         7.14351421793316    5.50034629366724   13.22292203193340
C         7.85903699791408    6.01272950410370   12.07014007993325
H         8.45127157666366    6.91420173420192   12.26902470755272
C         8.48454786419668    6.28507481179301    9.85896761802179
H         9.09477577882447    5.64228362613727    9.21905838829261
H         9.12548822989961    7.07742969496108   10.27951042479772
C         7.38458188272773    6.95760975827946    9.03000829868195
H         6.68950480560718    7.45660909302335    9.71774027162561
H         7.84221593995918    7.73336748767729    8.41144484086196
C         6.58365694660333    6.05292144835222    8.12876784053733
C         6.01510088622604    6.64799896681472    7.00377972550848
H         6.18019761290702    7.70003294073204    6.82511604573725
C         5.24689698567230    5.90384171008203    6.13147217161876
H         4.79841682431453    6.35441490167124    5.25945368952848
C         5.08344176540400    4.55576681620083    6.41582583424057
H         4.50515373032437    3.91283392751112    5.77166417933890
C         5.67707060010978    4.04085022854020    7.54935195708569
H         5.55719006523281    2.99217598361009    7.78434396044662
C         3.79147274504209    3.40434809044459   11.88183527692276
C         4.00834531512323    2.03149851679467   11.96293956388076
H         5.00509441593648    1.64855710659402   11.78167182061781
C         2.96328023965296    1.18038253618495   12.26995837069186
H         3.13567357844978    0.11641858281947   12.33432652528235
C         1.69441545342410    1.69433726821066   12.48782842275492
H         0.87511671666806    1.03055213418686   12.72195998671271
C         1.47394150079288    3.05966899872568   12.40415213415031
H         0.48447908646544    3.45898753573965   12.57510354444219
C         2.51764604409544    3.91750385168805   12.10499405946768
H         2.34410044657183    4.98359722609101   12.04610789130426
C         4.47616808619925    6.00319477903486   10.98887327339346
C         4.67427211201749    7.21527494599553   11.64032810977689
H         5.21387579893208    7.24427985963912   12.57739380291701
C         4.17461628350111    8.38525950909896   11.09258540888863
H         4.32913986648753    9.32469402169262   11.60411852284792
C         3.48205440762188    8.35652158924580    9.89360070792882
H         3.10129634409821    9.27308783447330    9.46779072809775
C         3.27419322521905    7.14972257818360    9.24250720098090
H         2.73019736315955    7.12357109145441    8.30933974494325
C         3.77130234499920    5.98180501340027    9.78553085600412
H         3.61569870056500    5.03271858988599    9.28578001813896

