89
CSD_code = WEQWIZ | q = 1 | S = 0 | Stoichiometry = C42H36O8P2Rh(1+) | MND = 8
Rh        8.33558648971641    9.27341005569924    4.25973097606540
O         7.34002290435100   11.63888249816660    6.47893613686395
H         7.90147157529821   12.41264365182722    6.31981729597751
C         8.02941727735639   10.48741578875452    6.33661487697390
C         7.31970069669912    9.27896366177236    6.53259235471878
H         6.27721367339033    9.33841121409149    6.80809329870422
C         7.97919670549555    8.05573680536994    6.46002298340653
H         7.44339102425331    7.13976954852255    6.67357742669255
C         9.35798216803117    8.01779546970686    6.16153998374190
C        10.08688507772215    9.22826009151457    6.08536195937050
H        11.16349779826779    9.16757916469093    6.01630726108385
C         9.43652142503375   10.45104544104492    6.20135012887072
H        10.00428798941483   11.37122726380239    6.22955561250268
O        10.06514014537821    6.87324806832545    6.12393506057365
H         9.49666366637328    6.09603471298126    6.20059814310763
P         7.16906513758174   10.52288473117155    2.83579167008300
O         5.70262389347499   10.95328276569733    3.36995822077141
C         5.00546685527974   10.18992707996148    4.28345108039223
C         5.02459339349391    8.80453634198171    4.22005919076050
H         5.57039495878103    8.31351117271875    3.42412940680960
C         4.29579905608285    8.07312559278080    5.14520469844166
H         4.29868834632068    6.99600930858695    5.08543362644727
C         3.56574218325816    8.72030816394104    6.12761205447502
H         3.00009088808866    8.14792661382403    6.84628219449866
C         3.55374401839900   10.10589673254103    6.18236154070554
H         2.98297412743871   10.61269450251816    6.94465103110464
C         4.27485231790795   10.84744891106287    5.26352431758600
H         4.28302550903246   11.92513821994764    5.29513066116836
O         7.64463417277160   11.96450703486038    2.33051835003339
C         7.79177491738833   12.98022357551581    3.26666100873042
C         6.79641153014522   13.93317988469855    3.41170050292100
H         5.91297456514493   13.87530975137047    2.79643956774153
C         6.95554083446144   14.94850970521380    4.34010620683813
H         6.18515490030972   15.69493203108486    4.45188310910734
C         8.09681909063741   15.00766432078415    5.12298789937275
H         8.21684536274680   15.80034622458013    5.84458579676920
C         9.08833750551070   14.05071040874972    4.97130828939958
H         9.98744878574396   14.10664524572650    5.56786759558297
C         8.93777514315336   13.03016492158351    4.04392444740315
H         9.70023949110463   12.28000139362636    3.88940298620631
O         6.97743898804511    9.76520218812544    1.46102917188558
C         6.53506796287233   10.25014964357597    0.22741629988976
C         5.63101694346232   11.28996648947371    0.11071525409407
H         5.24751663354690   11.76969840611187    0.99737046852987
C         5.22552172162634   11.69443376210253   -1.15116136198389
H         4.52157849870730   12.50654077246554   -1.24798755919513
C         5.71482086783940   11.06185624281112   -2.28076245009873
H         5.39485229871622   11.38150363424074   -3.26013659224540
C         6.61360602929499   10.01527660662746   -2.15209894433890
H         6.99489949052364    9.51694551025634   -3.03007922737039
C         7.02935000315782    9.60580921511852   -0.89749381549507
H         7.72984126274179    8.79557467857739   -0.76860553324587
P         9.02928426092490    8.07613595247980    2.51090870771496
O         9.69595086551385    8.83863671514683    1.28032912499957
C        10.31549729137648   10.05814048654630    1.47476648039467
C        10.14625080014318   11.04424240828688    0.51317512264666
H         9.51672425768661   10.84837655613119   -0.34020839405122
C        10.79224690384653   12.25852984146343    0.66455927692039
H        10.66252205827647   13.02611191037658   -0.08205001893993
C        11.60407525049957   12.48880120192469    1.76324577560032
H        12.11152905624724   13.43450572519033    1.87182619417962
C        11.76748528696502   11.50081206860070    2.71981252857362
H        12.41050167153003   11.67154138116343    3.57049135193139
C        11.11534324691591   10.28425058643861    2.58621520065500
H        11.26477937730035    9.48879036390968    3.30476928985492
O        10.15059683153253    7.09286649376307    3.11382759373024
C        11.03760013643319    6.24391207862032    2.45799322112497
C        11.99105898909306    5.63033375560311    3.25877073779917
H        11.99927608273725    5.83886881490324    4.31748784391435
C        12.90713423295125    4.76831019870523    2.68423780536323
H        13.65010332360322    4.29052876407801    3.30384552963288
C        12.87152130405600    4.52178851855021    1.32148995372548
H        13.58779873415773    3.84985825349728    0.87535535399715
C        11.91637403786516    5.13951105092641    0.53355888889333
H        11.88527216277155    4.94993201886165   -0.52824619472796
C        10.99241179655062    6.00556647936682    1.09630425666855
H        10.24656249257191    6.49093483295988    0.48652813934786
O         8.09763063931021    7.16171691409985    1.58957822225349
C         7.04268482660157    6.43152522018565    2.09185116608855
C         7.02594325764553    5.98254463367033    3.40387187856648
H         7.86502815443367    6.21452696875588    4.04618597965778
C         5.96001892029280    5.22166778356914    3.85470670280008
H         5.95370684983650    4.85629043289797    4.87098472932589
C         4.91191816905651    4.91795801449056    3.00259962752916
H         4.08430132061503    4.32221498413002    3.35451785431082
C         4.93105691439151    5.37568493620833    1.69506287965106
H         4.11626730580982    5.14020538648237    1.02866576539585
C         5.99295662080439    6.13315194571618    1.23354226971083
H         6.02348026807945    6.49516110202178    0.21842449233053

