89
CSD_code = WEQWEV | q = 1 | S = 0 | Stoichiometry = C42H36O8P2Rh(1+) | MND = 8
C        17.79652552948226    4.08852990160177   -0.89140736050943
C        18.83054962718143    3.19187640433115   -0.52845837334778
H        19.83806751233301    3.56554568627710   -0.42914582394257
C        18.53013815273696    1.85906811878231   -0.31486662920353
H        19.29457517816280    1.14997073619284   -0.03437675022953
C        17.23418009177204    1.35364023833461   -0.58932801527841
C        16.24627860436313    2.20531591797112   -1.09702999983027
H        15.29299918190691    1.81013140855222   -1.42458420890738
C        16.50860422419711    3.58012805624610   -1.18002744457053
H        15.76472352997715    4.24474604774491   -1.60601682138903
C        14.32492609262954    1.13380626714541    3.25602831104102
C        14.57227574323895    0.53817098588825    2.03235498651775
H        15.47911238947130    0.80273013317112    1.50306758466179
C        13.67648943276060   -0.38821532969674    1.52650250631510
H        13.86698936083367   -0.86273934099552    0.57532874097025
C        12.53991237621205   -0.71946483336360    2.24316163367632
H        11.84549281174300   -1.44403782122620    1.84820191036451
C        12.30372409335358   -0.12757154536670    3.47290323689432
H        11.42496755021548   -0.39176845573427    4.03957172555649
C        13.19223943821729    0.80018770677268    3.98491216001219
H        13.02744403484822    1.26737826053006    4.94193270661757
C        18.69589627676220    1.03254733265264    3.09031078999151
C        19.54506866425002    2.08829198333436    2.79318455087505
H        19.22282915603000    3.10788909870345    2.96704953323578
C        20.81975930574762    1.82135186552577    2.31730358189510
H        21.48496293674904    2.64303896392167    2.10230898886116
C        21.23582227259420    0.51495692442538    2.12772163030656
H        22.22840860305770    0.31171641776658    1.75716266165320
C        20.37718184716873   -0.53336790236017    2.42118100710182
H        20.69792619974726   -1.55295395429837    2.27580970003618
C        19.10475258357868   -0.28055419177684    2.90152934892850
H        18.42405609448338   -1.08271054705390    3.13802506280280
C        16.94140760106851    3.44373657673743    5.61869356396458
C        15.78583877442684    3.63575998739846    6.35607146139241
H        14.87847670283641    3.92003964608406    5.84683430566329
C        15.82182782836170    3.46013553893567    7.72911887107552
H        14.92478472392219    3.60936315982010    8.31015638167134
C        17.00170271152928    3.09245661881301    8.35423987816679
H        17.02523026672429    2.95480736291455    9.42400777395837
C        18.15087523573663    2.89980146690186    7.60601469621460
H        19.07131772702683    2.61121602878148    8.08938819857085
C        18.12636500704999    3.07239212208199    6.23215120020327
H        19.01509165516835    2.92833563990050    5.63622510152259
C        18.42224256441360    5.95958676643554    3.14188616794916
C        18.85733627875959    6.00869552258555    4.45758034257776
H        18.14704484758689    6.21370258612569    5.24211423919918
C        20.19448627623667    5.78758465952180    4.73789055630789
H        20.53498844549481    5.82118514272987    5.76104733587791
C        21.09111002682272    5.52617889977765    3.71409202989547
H        22.13276405107348    5.35797636209740    3.93910847690626
C        20.65030876870745    5.49538096878783    2.40213722606139
H        21.34827355599146    5.31824048686001    1.59810852505155
C        19.31144976123099    5.70528957975303    2.10982370436506
H        18.96048329314006    5.72346279411083    1.08781859665105
C        15.41712289273135    7.53139399630214    0.60106114051338
C        15.14275923996099    8.25980865124046    1.74441494391409
H        15.30636695523135    7.82128627764396    2.71555182335968
C        14.66157984847730    9.55347113987937    1.62362680630159
H        14.44892471053310   10.12271547530722    2.51512187821709
C        14.45590605823345   10.11462830727509    0.37568741541463
H        14.08319419541412   11.12298463154577    0.28947023162430
C        14.72960581350869    9.37671812005761   -0.76346667278445
H        14.57082137659176    9.80465669949441   -1.74096290473111
C        15.20996398544453    8.08401008795832   -0.65565496960538
H        15.41824152893760    7.50184777058009   -1.54100892110217
C        13.77959857431011    4.55955607600684    2.60168504239181
C        12.83904356117861    4.53082001168971    3.62372559253037
H        13.01054807688028    5.12218480224590    4.50927114285288
C        11.69667116888064    3.76495581916635    3.48250783804963
H        10.96507774983524    3.74907377753586    4.27516813267984
C        11.48688877707547    3.02694770971580    2.32900693408979
H        10.59374864054668    2.43291961689053    2.22017027050911
C        12.42387779219788    3.06194416139513    1.31267403427564
H        12.25929737839110    2.49739245507242    0.40799745250944
C        13.57140844364767    3.82762626827616    1.44296793769063
H        14.29369949385578    3.88386241952237    0.63608936474860
O        18.13034588600161    5.37604750752179   -1.10977206483960
H        17.34628429155409    5.92380692897182   -1.25459700571466
O        17.05881436666906    0.02266784964478   -0.45755726334751
H        16.17649538079811   -0.25071453918009   -0.74121818593454
O        14.88572519909431    5.35862909212731    2.79210866959654
O        15.90973827654669    6.22576083644719    0.62389084231678
O        17.08270103339417    6.20069658854352    2.88246468613734
O        15.16955842767911    2.07634315896856    3.79978772324244
O        16.92735889293045    3.67961171102056    4.23526231699861
O        17.42639276238954    1.24733588909650    3.59257318951134
P        16.21557524306506    5.29617407155145    1.91050774207228
P        16.56423854038250    2.54710401433977    3.18083566572934
Rh       16.90444043852709    3.33497016500585    1.11708960643334

