67
CSD_code = WEQXOI | q = 0 | S = 0 | Stoichiometry = C28H33F3IrNO | MND = 8
Ir       14.53245024864603    2.58108154103526   17.71192204449006
C        15.05378142024992    1.84897506242178   19.52295120249016
C        16.16355465062518    1.05909066426722   19.82860268479493
H        16.89155084119836    0.84615773451343   19.05905819266993
C        16.36379469255879    0.54090327223976   21.09368674706452
H        17.22931702857640   -0.07486223782517   21.29417988127040
C        15.46171790433933    0.80725943196915   22.11571212873987
H        15.62431460691547    0.40085662870285   23.10292989367370
C        14.36010784214269    1.59579037579995   21.86237519694727
H        13.66255135945155    1.79492869815769   22.66563639111997
C        14.15129259005984    2.11192493668220   20.58321653570049
C        13.01367880431799    2.94312023926145   20.18498642211437
O        12.88850265081876    3.24533221410717   18.97497340245637
N        12.12986712765046    3.35760634805423   21.10045933479655
H        12.31660716201680    3.12197702320301   22.06144781660890
C        10.98106745009023    4.23204561311763   20.85598060342838
C        11.47319216581278    5.57494545026788   20.31110205540486
H        12.15370524273997    6.04476647235105   21.01731714216625
H        10.63184549377778    6.23987347629059   20.13749303479961
H        12.00238485394650    5.42071519103603   19.37607415187436
C        10.04023017494694    3.55809745026121   19.85444278259594
H        10.56016410107140    3.39608599618715   18.91533385864966
H         9.17319037077168    4.18731031753360   19.67403192570704
H         9.70369294806333    2.59750542225383   20.23818803587298
C        10.27372822208194    4.42883229825019   22.19563436198715
H         9.94000721252782    3.47434676187138   22.59790426878527
H         9.40416867181658    5.06699688231070   22.06632977706592
H        10.93932621876545    4.90219105758597   22.91462302020439
C        15.55139663362518    4.25388780153898   18.27048823449990
C        14.90044652419382    5.47414054059871   18.06022292094960
H        13.87386543569746    5.48219774401929   17.72111776323307
C        15.52821677962660    6.68672180040789   18.26919240968132
H        15.00319727804663    7.61627446302397   18.10245563565364
C        16.84922386761638    6.70967368344857   18.69844597128640
C        17.52790152169886    5.51753301111734   18.90794448768831
H        18.55620275066325    5.53570031149428   19.23752615634772
C        16.88030593921820    4.31348526046837   18.69725352313559
H        17.42727798293263    3.39975857268707   18.87473267196737
C        17.52675985218067    8.02863294397564   18.89580148211976
F        17.87139024765776    8.61387995840135   17.72549344345488
F        18.65987082431070    7.95142536547208   19.61203204413090
F        16.74584662645542    8.92758989730707   19.52793300767281
C        13.68077991267470    2.66244670932540   15.55217633478292
C        13.44712647858410    1.33568521697437   16.08093472578956
C        14.68636647471423    0.73800646554922   16.34929634660938
C        15.71079325276497    1.73625465068541   16.11180904656237
C        15.06055374411504    2.88387973550524   15.50350653531001
C        12.60545304841115    3.54296592362573   15.00094062102750
H        12.96839070957079    4.55797544907107   14.85491114030234
H        11.74754411139996    3.57865337533831   15.67154012681487
H        12.26052291855918    3.16158732544756   14.03737348829815
C        12.10161990425729    0.68444085701728   16.12545281229409
H        11.81302375748565    0.34654930401330   15.12752814596004
H        11.34205845735391    1.38349885318971   16.47290000406579
H        12.10122755517319   -0.17713069127681   16.79019988811227
C        14.94863676063804   -0.68892072237664   16.71471583540903
H        14.04750335548976   -1.17187578558286   17.08516165200680
H        15.71409784534733   -0.76503487872607   17.48444606883779
H        15.29436503822461   -1.23785839481933   15.83650023800906
C        17.17655246004580    1.44241567166182   15.99506150038282
H        17.41151345372375    1.12130271232611   14.97827385204802
H        17.47046051100460    0.64733267849560   16.67582622993292
H        17.76953806393680    2.32673940353258   16.21736318827611
C        15.77938890696152    4.03190965117688   14.86846399688910
H        16.68450045975366    4.27801727254983   15.41941158121392
H        15.15414877243174    4.92098670126278   14.83280732330794
H        16.06203972750892    3.77101684019750   13.84656667248908

