89
CSD_code = WEQXIA | q = 1 | S = 0 | Stoichiometry = C42H36O8P2Rh(1+) | MND = 8
C         5.10930933215259   10.26318672550562   -2.73439206801195
C         5.91127960008196    9.09458200011312   -2.72503910599331
H         5.78937554251307    8.40943709099659   -3.55358787296532
C         6.97882690331723    8.95903323111941   -1.83399718004158
H         7.68957811929795    8.15105589844154   -1.91930452428856
C         7.15335269151919    9.91271265213998   -0.81829437854770
C         6.28024389277330   11.02097848801954   -0.75857038747833
H         6.46781771733781   11.79235951637617   -0.01958639883295
C         5.32079431460315   11.24168223837480   -1.75039285927556
H         4.76242345454224   12.16908668198357   -1.76782109637122
C         4.14014913154548    5.35862828993409   -0.72770159728004
C         5.33216113412692    5.61850651791974   -1.38559915644590
H         5.35373830046142    6.38619344548434   -2.14753436439824
C         6.45396859786991    4.85874664149455   -1.09372592874265
H         7.37842199648050    5.04867439968077   -1.61768163658869
C         6.38548270540785    3.85482171228310   -0.14291655844943
H         7.26022473458179    3.26639321082060    0.08608819467864
C         5.18803132722274    3.59796618899757    0.50543760496696
H         5.12914439284254    2.81173902976222    1.24180332962434
C         4.05984691234910    4.34526217459121    0.21569273866385
H         3.12141684807766    4.15917206699900    0.71235237778902
C         1.10970029393195    9.15320244517649   -0.20445705345230
C         0.04132156285325    9.20807658575090    0.68188408103556
H        -0.36263839669166    8.28757054653426    1.07234048430013
C        -0.49413073215234   10.43303508903837    1.03387823022075
H        -1.32639725707350   10.47349491148285    1.71894007588974
C         0.02815393438098   11.60317881890413    0.50741051057833
H        -0.39330813969803   12.55664597461164    0.78248575534999
C         1.08714441863198   11.54358556864195   -0.37981298707123
H         1.48709083623057   12.45351884704525   -0.80034804589406
C         1.63117229420989   10.32099505562126   -0.73965525880641
H         2.43715039229014   10.25676283786444   -1.46108753024129
C         1.85574480735162    7.37264740221659   -3.64534365717284
C         0.88761278628995    6.47292260271192   -3.23861049221220
H         0.84733554206998    6.15088979766017   -2.20975827199680
C        -0.01991733667937    5.99402668765199   -4.17014394169353
H        -0.77639137801032    5.29064973659534   -3.85814879760547
C         0.04087951075721    6.40970471860561   -5.48860322092355
H        -0.66806281799321    6.03067986246934   -6.20789371096927
C         1.01408226000454    7.31309621168313   -5.88349219244362
H         1.06665429984591    7.64110228749089   -6.91005009572808
C         1.92537822918124    7.79957015408639   -4.96389433575041
H         2.69143849029351    8.50468804285017   -5.24658605831202
C         3.29525650795005    6.45668335888527    2.78724564749300
C         4.25661031463364    5.72018149414629    3.45947032533956
H         5.25523120678809    5.64863145517418    3.05485974405627
C         3.91452671938885    5.07957041009091    4.63867545571664
H         4.65927636444941    4.50436417156188    5.16652180323062
C         2.62713336928997    5.17908829093704    5.13904292673598
H         2.36617847789688    4.68041016336493    6.05945399031540
C         1.67477112525603    5.91914227749215    4.45830172805731
H         0.67079725766965    5.99741513311882    4.84625741337931
C         2.00559360450592    6.56376881676704    3.27830465940728
H         1.28137758842377    7.14564865469005    2.73045254939643
C         6.57768260132300    8.32060217292396    2.40544140691439
C         7.54036806984677    8.87405640532999    3.23957505468266
H         7.23804308265511    9.59626898084225    3.98187921291898
C         8.86016286484999    8.47856107482069    3.11261758074312
H         9.60751006914249    8.90396855980536    3.76419851977779
C         9.22041897195261    7.54176609597063    2.15735589809715
H        10.25026540996683    7.23662039153811    2.06228836004769
C         8.25546471926915    6.99660445742509    1.32943553146177
H         8.52567001213732    6.25999569688010    0.58939351413178
C         6.92977379067289    7.38236067257509    1.44721483423565
H         6.16859001371911    6.93909968588844    0.81541796826351
C         2.78491080314388   10.63540886506088    2.42845965067662
C         1.81506706455882   11.04258075474362    3.33328210191343
H         1.25310220044043   10.29747784767135    3.87253294607935
C         1.59386893509245   12.39388530172293    3.52908158837404
H         0.84244647016115   12.71275545572911    4.23416950950044
C         2.33212766223472   13.33403807185140    2.82944410857442
H         2.15736235595150   14.38658204787696    2.98714750883128
C         3.29994171463267   12.91963998276918    1.93118073769566
H         3.88123161128473   13.64957699621955    1.38820219437187
C         3.52797331465547   11.56942508310028    1.73048102091814
H         4.27560274566526   11.21683896340505    1.03041200054211
O         4.25298007887409   10.42061705681511   -3.75997488845321
H         3.73522032696938   11.23194434581437   -3.67502063347806
O         8.22426426201464    9.79453317426826   -0.00832749749196
H         8.26772426304231   10.50638355472353    0.64222461131703
O         3.00022054721274    6.08703004081475   -1.01101147030339
O         1.59472370761303    7.90808552222201   -0.53385272060311
O         2.81137387923238    7.90694733175463   -2.78428261282878
O         3.62305851456960    7.05793309888068    1.56267647196027
O         2.95363505638248    9.27917155804450    2.25053377130264
O         5.27019115046242    8.72891174042261    2.58958818537327
P         3.02138470889918    7.66317343403308   -1.21663853847936
P         4.13370708111611    8.55842798369460    1.45497538231508
Rh        4.74237815490150    8.95966098240887   -0.65217017163421

