92
CSD_code = WEQYIB | q = 0 | S = 0 | Stoichiometry = C44H42OP2PtS2 | MND = 4
Pt        1.64949955120560    7.14217904078104   10.79678437959288
P         3.90637436674753    6.92187087268704   10.30050379223201
P         1.14793128852756    4.93926700718628   11.26681001081004
S         1.73304583367157    9.45072765744292   10.59450523123671
S        -0.45947417383482    7.85705740867087   11.39325700869051
O        -1.58737875596866   12.29653416724273   12.37369182048267
C         0.07887892382753    9.59378683989184   11.34035867776767
C        -0.01342934254342   10.38253484174558   12.68578638162428
C        -0.97841443631491   11.33483618172348   11.99773010527754
C        -0.89939862811636   10.60485266042713   10.66721195713354
C         1.27226427612764   11.06492420832044   13.13977584249217
H         1.04211318183874   11.79024167767295   13.91734738065128
H         1.75195456842506   11.58062096448120   12.31056226196645
H         1.97044561018773   10.32843594436770   13.53439327332999
C        -0.65180996935622    9.62827802468914   13.84698212291492
H        -0.86260919090340   10.32116770884334   14.65862583483355
H         0.02145822936733    8.85071611498814   14.20491520368157
H        -1.58294572771994    9.15762929102762   13.53797492452088
C        -0.29185297242634   11.45218521779626    9.55503274465464
H        -0.96928860832444   12.26535182556857    9.30362872396998
H        -0.12201621715167   10.83897107943845    8.67183933764171
H         0.66175172754721   11.87430217270762    9.86646863858817
C        -2.23911263242456   10.02543292313848   10.22750097891985
H        -2.92215352187858   10.83481412127410    9.97910805335900
H        -2.68064684580850    9.42676228985958   11.02219854104911
H        -2.10172416585326    9.38926372879131    9.35501674594905
C         4.46516767732629    8.19846226377849    9.13274014768028
C         5.68536608831110    8.85317817117093    9.23567913275916
H         6.35749599091736    8.62317215351113   10.05019302590551
C         6.02875136244415    9.81209554983195    8.29879484647662
H         6.97451020486706   10.32753558108416    8.38220638638079
C         5.16302323973838   10.11891785997217    7.26192896086838
H         5.43518046573107   10.87317382286843    6.53826165025972
C         3.94364471350860    9.46901916395258    7.15854648805534
H         3.26430901670358    9.71570510097114    6.35597378130940
C         3.59422272042113    8.51353222496542    8.09301291325679
H         2.63245872533085    8.01401726231823    8.04361791245178
C         4.89538954099234    7.21355673540156   11.79779178620947
C         6.20839535591360    6.77943601650423   11.95069362276301
H         6.69290444876201    6.22741965964170   11.15679837352268
C         6.88833534539713    7.05000476356100   13.12460900566208
H         7.90798407381829    6.71259532686242   13.24278174092406
C         6.26950881157946    7.75291310487373   14.14610483540963
H         6.80776358103677    7.95989786199526   15.05939732174461
C         4.96413041194165    8.19147883084219   13.99511208744562
H         4.48425133775871    8.74429743661345   14.78949954263982
C         4.28016385763366    7.92004577549074   12.82566914793271
H         3.25760675731954    8.25702912045628   12.68265156228821
C         4.65913328265930    5.41064406848735    9.61458385074598
C         4.81466230742020    4.30921037966041   10.45220915889469
H         4.57986225397305    4.40853949498718   11.50300523722495
C         5.27358541075620    3.10817865199661    9.94819744231191
H         5.39233412371537    2.25918893405104   10.60564266838898
C         5.58059627848532    2.99276953507507    8.60182003416515
H         5.93580360622504    2.05267760875482    8.20679073086648
C         5.43507624136445    4.08660163223380    7.76528042325972
H         5.68288419669377    4.00111872851271    6.71721053881852
C         4.97145084697090    5.29055441251150    8.26474677512431
H         4.85293574214241    6.14113238698526    7.60794438329099
C         2.10033244208592    4.45860078084845   12.73986141001049
C         2.80745330653221    3.27623645470000   12.91431778725457
H         2.79459783991544    2.51612465948717   12.14663397906200
C         3.54870915645997    3.08401823431365   14.06886192991972
H         4.10035716607432    2.16452622603388   14.20217951385435
C         3.59226007743725    4.06366614870050   15.04657206605162
H         4.17824831412108    3.90745144753390   15.94007629455679
C         2.88859046744670    5.24635742689537   14.87644713774161
H         2.92529197226945    6.01207244877610   15.63691929737881
C         2.14946713703244    5.44235907877780   13.72709301120641
H         1.59283906042222    6.36150434828569   13.56861950581467
C         1.41098031020579    3.63895691899600   10.02341773529427
C         1.09554951090101    2.30656053963142   10.27064502309915
H         0.66463389322036    2.02360136313435   11.22155042974474
C         1.31689184143521    1.35691704401219    9.29058810529227
H         1.08100190700955    0.32032341603062    9.48316649556399
C         1.83187977710012    1.73220943018866    8.05925954561530
H         2.00381186490934    0.98491107786604    7.29875758397579
C         2.10600029092484    3.06377791922866    7.79587159396759
H         2.48325576118472    3.35897899985808    6.82820263243763
C         1.89174043043147    4.01487588981827    8.77593475142874
H         2.08587170126301    5.06545336645534    8.58713650765835
C        -0.57054378614122    4.59751160031949   11.74950171436675
C        -0.95187458836574    4.16681824990134   13.01330285462691
H        -0.20638017289883    3.99261092540546   13.77674608136507
C        -2.29256016379943    3.96670254534619   13.29299494364940
H        -2.58930392912558    3.63249574983482   14.27665885245486
C        -3.25153372546129    4.19865241738392   12.32178910624601
H        -4.29636159416997    4.04618712737510   12.54896087673015
C        -2.87314700985805    4.63459189759447   11.06152992388363
H        -3.62208185754091    4.82592987081176   10.30736760653252
C        -1.53760052473941    4.83534996120607   10.77570583424838
H        -1.22682726364966    5.19152284424897    9.80192438037582

