121
CSD_code = WERBOL | q = 0 | S = 0 | Stoichiometry = C46H68MoN4OSi | MND = 4
Mo        4.62542770644769    7.68280944357827   -5.26551262515461
Si        1.66621734221490   11.85419705316110   -4.32911964888724
O         1.86383243974594   10.23738362456215   -4.50274840068665
N         4.15102657646436    8.18447828194990   -7.08226621665938
N         6.40351001609323    8.24426135907929   -4.73143206589935
N         4.45502454993719    5.85532502932855   -4.55391081950463
N         3.54275122898964    8.68536802527885   -4.23292788212460
C         3.45259081295720    7.13762702678461   -7.69762401963438
C         2.24931853599286    6.70770890797106   -7.12236114210872
H         1.88673659600847    7.24511626724250   -6.24966375254636
C         1.52084472760856    5.66719126459627   -7.67551443057165
C         1.98464682413102    5.06420879698336   -8.84027322973714
H         1.41144756032696    4.26541447514804   -9.28948851009757
C         3.16502951738797    5.47914949636821   -9.44209973526533
C         3.89747685118099    6.50604811410046   -8.86421829922012
H         4.83791328922477    6.80144286664136   -9.30709441852877
C         4.04245917027365    9.48579484276306   -7.74295633877459
C         4.71841985776713    9.53488887685974   -9.12621270834710
H         5.75279446107222    9.19929504403846   -9.07439393728376
H         4.71177424298841   10.55904499838450   -9.49336325856081
H         4.18176231136808    8.91680289394328   -9.84147631975721
C         2.55430969971426    9.83632394692613   -7.91522930081835
H         2.06242024195287    9.11218955524343   -8.56286233469438
H         2.44924790349047   10.82266421446257   -8.35950446236497
H         2.06730959590252    9.83211093367175   -6.94167417149195
C         6.52221762107773    8.82224187566746   -3.45240256748866
C         6.39778047756109   10.20087064266879   -3.26375950821928
H         6.18453860882129   10.82992468621984   -4.11616597408708
C         6.54010202968211   10.76326548905429   -2.00568574877307
C         6.79871135542132    9.93707720538711   -0.91628980972582
H         6.90833284548525   10.37624366021593    0.06519118944064
C         6.90725757417938    8.56390737069922   -1.07155748467760
C         6.78201565715332    8.02025218861149   -2.34286457932850
H         6.87992046101560    6.95311451073906   -2.48287213719609
C         7.67314192003296    8.10941990125177   -5.45188246848377
C         8.38269144621355    9.46734057949209   -5.61337130935060
H         7.75267162896973   10.17913732655473   -6.14130608497699
H         9.30166235426532    9.33557825329058   -6.18048277027321
H         8.63304771471720    9.88417592126018   -4.64082815631828
C         8.64073759129973    7.16319025926249   -4.71747732381673
H         8.92142742003091    7.57806159234151   -3.75222941114860
H         9.54412249561516    7.02733270255622   -5.30855608151853
H         8.17405576400477    6.19224255648294   -4.56864641202621
C         5.43305142106215    5.00597655534961   -5.06836308463826
C         6.46689147908492    4.47983572115302   -4.27569934358191
H         6.50995892492281    4.73291407208003   -3.22530183225478
C         7.43382187732155    3.64567693386153   -4.80885906054161
C         7.38525926260730    3.32332402107981   -6.16081639927348
H         8.14023434731228    2.67276295114810   -6.57840712257958
C         6.36933384143416    3.81000209953052   -6.96936296782725
C         5.39922392821306    4.63556914637579   -6.41659692513323
H         4.56804575068478    4.96513698326238   -7.02617540220629
C         3.63671179718512    5.33537269759464   -3.44827013004871
C         4.10487811592062    5.86835945184790   -2.08709701710027
H         5.03983748427316    5.40658209558073   -1.77875229680359
H         3.35846531098835    5.65904810606071   -1.32402321096689
H         4.24028289246789    6.94587918290144   -2.15674772584716
C         2.19306055859244    5.80211480117426   -3.68444803051268
H         2.15112223540693    6.88780822923489   -3.71591978679531
H         1.55021429917741    5.45541547320458   -2.87803861053952
H         1.82626140723771    5.39303205772022   -4.62288517691380
C         2.63611854217999    9.38437557625704   -3.69004788010969
C         2.29238509453977    9.34517220224987   -2.27830783593602
C         3.29362205653918    9.18322217125561   -1.31552247215853
H         4.32124389832593    9.13943975784550   -1.63991879601849
C         2.97463936149707    9.11996120392297    0.02448307362234
H         3.76249036123277    9.00820970731535    0.75615592241678
C         1.65325716944593    9.21334777299799    0.43648669896653
H         1.40499303661249    9.16596939473948    1.48679777089670
C         0.65217460984747    9.36959607099677   -0.51081685316398
H        -0.38014504885261    9.43525514443988   -0.19614154317998
C         0.96356034612383    9.43552745525793   -1.85325739224676
H         0.18278459067435    9.53750826088863   -2.59108575154568
C         3.31405494718306   12.65937330252852   -3.79919321367970
H         3.79576166290975   12.03475645513722   -3.05187948865300
H         3.17194222370562   13.64471269596470   -3.36742802105896
H         4.00362123196125   12.76384592583637   -4.63201854332562
C         1.09016489788137   12.47065507509134   -6.03531059403162
H         1.91330686516045   12.56407416088448   -6.73435254881528
H         0.63427792599997   13.44964543107181   -5.93515186082183
H         0.35372965490433   11.80804761047240   -6.47711122003094
C         0.33869609011980   12.36141722871628   -3.05278606062280
H        -0.61682992560994   11.88443716297545   -3.25136249939271
H         0.17487585215345   13.43437719686839   -3.08734516851462
H         0.62851334464022   12.10647198084452   -2.03775344813977
C         4.69109223276935   10.52995278585652   -6.83118238261881
H         4.21403101175838   10.50076436420163   -5.85129742024681
H         4.57134365925842   11.52529895452126   -7.25580140881423
H         5.75448014976114   10.32500662420008   -6.71813072331323
C         0.23868335833959    5.20206092287452   -7.05072401864512
H         0.38690312166856    4.24047397967841   -6.55770731842215
H        -0.53036299377347    5.06860674119492   -7.80968371864072
H        -0.11587187792048    5.91667005818245   -6.31225618233600
C         3.62324006080745    4.84329850366376  -10.72178737661084
H         3.42693210685672    3.77281807062990  -10.71755002381849
H         4.68571405770637    5.00824349767707  -10.88385604482193
H         3.08107226246977    5.27608890533474  -11.56348289131254
C         7.38545901186689    7.53070861183615   -6.83934857941462
H         6.87307495787309    6.57019300832898   -6.75078351367998
H         8.31794139626715    7.37256228211844   -7.37888556289109
H         6.76469113933570    8.21602802965356   -7.41371932776159
C         6.42757416150106   12.24449184496125   -1.79883702329995
H         5.56319243796482   12.47227340826534   -1.17565190052886
H         6.31793179167847   12.76500820996573   -2.74613416830817
H         7.31252637637735   12.62472980705206   -1.28977999872998
C         7.13624877024857    7.66649624107367    0.10820073513064
H         7.87912065750656    6.90500081812900   -0.12260077829770
H         6.20709870992227    7.15983080675647    0.37101841939293
H         7.47282502291633    8.23481216737468    0.97183297202588
C         3.60880040475156    3.79736365061183   -3.42759211571271
H         3.34849057851842    3.41191212241451   -4.41203134492052
H         2.86033459882616    3.46271766123135   -2.71305511282417
H         4.56648102699287    3.37336166181876   -3.13882628344141
C         8.53810337852267    3.10150904380616   -3.95093018242901
H         9.50202943590605    3.47962089023473   -4.29096252715345
H         8.56691628336391    2.01463371375771   -4.01321107467994
H         8.40393330267675    3.38677187343886   -2.91028201956071
C         6.30884111451784    3.45335918378404   -8.42439232555477
H         5.27652959075404    3.34706791150207   -8.74851330502294
H         6.84249282750519    2.52614980023121   -8.62075207036429
H         6.76908512718957    4.24258225836441   -9.02045688676258

