23
CSD_code = WERJIM | q = 0 | S = 0 | Stoichiometry = C9H10HgOS2 | MND = 2
Hg        5.84128201405223    0.82076546778681    1.28371215409303
S         5.66223478618875   -1.93679642795750    0.96557074793782
S         3.78491778909337   -0.45934162943716    2.77479898567700
O         3.78956777980181   -3.03123760373601    2.25958209946927
C         4.34508836369132   -1.86364899968153    2.04238535512882
C         2.67351939735669   -3.12265327572867    3.14079678264810
C         2.23601520325320   -4.57383566070216    3.19255517056865
C         5.71853826174462    3.02968074666883    1.65981116778691
C         6.54722291497004    3.97868755331317    1.07436279863094
C         6.37649880207579    5.32118907836951    1.38249470364368
C         5.38942908435094    5.71810852716190    2.26680354915957
C         4.56464628857764    4.77159759035392    2.84874443693853
C         4.72624328082916    3.42700339662143    2.54762735698031
H         2.97176105597736   -2.75711232349566    4.13094221770621
H         1.87165977815207   -2.47430624213752    2.76705175431257
H         1.38516577917470   -4.67318400122959    3.85991851064330
H         1.95371189789454   -4.91421870575913    2.20002512980751
H         3.04959363403858   -5.19616910738264    3.55501807292379
H         7.32579181434478    3.69188101126977    0.38053644161292
H         7.02329619126966    6.05510632675080    0.92461279964180
H         5.26322497682685    6.76453100566019    2.50229488377999
H         3.79171340636943    5.07333951299105    3.53991534111428
H         4.07087749997129    2.69591376030183    3.01223953979603

