91
CSD_code = WERMIP | q = 0 | S = 0 | Stoichiometry = C32H54N2O2Ti | MND = 4
Ti        3.12912070107490    0.58029103356042   13.40259902997140
O         3.24604377303135    2.28369384685849   13.76200137618905
O         1.62351571951199    0.21328585872569   12.58861035943326
N         4.88718856486129    0.30356566430757   12.76526123754435
N         3.17665877525888   -0.79619182477631   14.69630695613646
C         3.14325699967022    3.58451100317579   14.02383714790085
C         2.95051903341731    4.53586099340689   12.98788204190904
C         2.80058540764314    5.87227190621897   13.34421732161341
C         2.81531880057859    6.29536705614482   14.65347710198733
C         3.04131260829123    5.37417992482167   15.65674774717788
C         3.22750914664943    4.03287604660460   15.37385647275726
C         0.52774896554583    0.00745177089903   11.85899221904572
C         0.58702372068551   -0.80820899837994   10.69446682811210
C        -0.54649265729923   -0.94147351087434    9.90823672530559
C        -1.73421556912297   -0.32479715949719   10.24047455428208
C        -1.81076450667401    0.41604110493815   11.40079662997384
C        -0.71566643423362    0.59335403229813   12.23317681102151
C         5.44818924486268   -0.98808703971743   12.43730060003275
C         5.87124743086641    1.32590923233543   12.48718022937628
C         2.13288255510366   -1.72883604293918   15.06291282104752
C         4.29549776304245   -0.97698757083930   15.59516381081251
C         2.98621580070722    4.27131821845539   11.47624815219399
C         2.85434259554187    2.80891297140009   11.04001722246810
C         4.33868411738360    4.79367393137986   10.95954951315361
C         1.84843556395776    5.03381512198573   10.76989857178466
C         3.56116406003261    3.05725705025404   16.50229082005003
C         4.92650229963279    2.41827571917176   16.20618028715576
C         2.46787918060103    1.98540979759927   16.61554115725123
C         3.66977170470374    3.73938016353952   17.87349555056334
C         1.86421734570670   -1.55327177054195   10.30299866668669
C         2.28696011782515   -2.47194675830221   11.45844731863936
C         2.97823631648766   -0.54782222193616    9.98204630118527
C         1.68380062252420   -2.44281180965072    9.06418915965302
C        -0.88742196234137    1.40827978524968   13.51889062821460
C        -2.34312836995604    1.82145396832659   13.77921647205281
C        -0.43101950120069    0.58312899433111   14.72827345220236
C        -0.05365688004228    2.69087492975133   13.43215370854372
H         2.66801301357556    6.61593977423697   12.57568353975666
H         2.67352249318068    7.33872822645689   14.89231508872282
H         3.07684074932805    5.72875271359646   16.67247884339317
H        -0.52085340294522   -1.53594620058397    9.01146407754788
H        -2.60133071799025   -0.43432484687186    9.60648127123617
H        -2.75789678805290    0.86294110604472   11.64792173274324
H         6.40978550670814   -1.13833759781671   12.95939768925468
H         5.65674036716692   -1.08450156110366   11.35596456779241
H         4.76819628196415   -1.78490646775569   12.74009655902388
H         6.81949661482147    1.10445594579682   13.00930854911707
H         5.52806679384459    2.30586279889092   12.82536869024159
H         6.11038310182612    1.38617815745230   11.40742729113542
H         1.73091113309431   -1.52104991443387   16.07272987231089
H         2.52966953122915   -2.75927944960187   15.08369527869119
H         1.30848190060773   -1.70421535500185   14.34906873226211
H         5.14340448656941   -0.37082499545948   15.27370422846941
H         4.61290210479379   -2.03449368778330   15.60834133282261
H         4.03600809272748   -0.70934924342052   16.63569616679733
H         1.87207225847315    2.41189363353312   11.29605204855390
H         3.63150358143310    2.18837803180332   11.48473371142594
H         2.96095554252033    2.76006149751888    9.95518327379258
H         4.47979839031763    5.83909590677704   11.22271298693594
H         4.38984484245396    4.70095612755757    9.87620717326458
H         5.15690587631606    4.22272775452835   11.39392253641859
H         2.03318286993470    6.10278390507680   10.72277330372158
H         0.90441559199119    4.87042523227454   11.28364586021553
H         1.74827372387116    4.67727939406759    9.74667289873412
H         4.90232993861920    1.87475590779894   15.26051902939783
H         5.19997679842637    1.72790791994687   17.00246941223849
H         5.68939356344630    3.19357748801768   16.14627626834044
H         2.65237928005843    1.35520644533766   17.48517386694642
H         2.44893384357569    1.35404465990232   15.72096498364215
H         1.49654285718268    2.46292587645688   16.73877955967863
H         2.72235726215326    4.17980641751027   18.17520344581183
H         4.43983757842472    4.50697669772470   17.87647476004779
H         3.94189326803718    2.99316739030044   18.61805307849572
H         1.47833734031833   -3.16152801164449   11.69789813239453
H         2.53038990366939   -1.88632890074120   12.34639580617933
H         3.16067173508974   -3.05541670796716   11.17095356662193
H         3.27753548303397   -0.00642417496223   10.88396855893737
H         2.63071620916787    0.16271341093512    9.23315502087820
H         3.84590737684428   -1.07072244177628    9.58134408905096
H         2.61650161201461   -2.96980421577741    8.87016284077358
H         1.44665700569484   -1.85408410627666    8.18125840115299
H         0.90739986124718   -3.18812158377836    9.21917015623480
H        -2.39183692870171    2.35445908747324   14.72726297382560
H        -2.99583479279121    0.95433874049246   13.84904632643851
H        -2.71425910125562    2.49162008361639   13.00758363211404
H        -0.64231800484939    1.12288147071246   15.65009735929284
H         0.64103191247778    0.39763317003674   14.67321834496499
H        -0.96123392565904   -0.36771508442668   14.75831701153766
H        -0.20088613566405    3.30402842653031   14.32033701509353
H        -0.35090676067232    3.27383966730451   12.56191430879139
H         1.00252582600773    2.44362606322463   13.35561974331153

