60
CSD_code = WERMOV | q = 0 | S = 0 | Stoichiometry = C32H23MoO3P | MND = 9
Mo        1.52864551353381    1.33493585128202    2.92726316175222
P        -0.01857226958792    3.04743851513693    3.17813568946014
O        -0.69562839705995   -0.53392644035477    1.93955372791929
O         0.62798898920266    0.24102646292310    5.64372068348221
O         0.64897396243568    4.52009449715640    3.17340326814215
C         0.12043029642102    0.18149530003069    2.31406758125691
C         0.93712732574069    0.64830322926868    4.61818579531228
C         1.82927172650140    4.97871285518662    3.70191504968722
C         3.03649967494485    4.27944898485368    3.59810404270190
C         4.18828924534587    4.83199357027345    4.15512891369513
C         4.15516153638482    6.05668890958604    4.79099398315320
C         2.96237488483777    6.74944280503765    4.87953776205937
C         1.79291552668805    6.22712097491370    4.33949441341418
C        -1.10607597146433    3.04497271006259    4.62851188049112
C        -1.98480318027835    1.96875245526195    4.72314942256575
C        -2.82128245281768    1.85525891768631    5.81541597420205
C        -2.77950446780015    2.81008519742775    6.82158981721950
C        -1.90092279570158    3.87542463289454    6.73319640405261
C        -1.06027636795779    3.99439268979161    5.63920408790745
C        -1.20229621159354    3.42181861162552    1.85484544687472
C        -1.12525856684411    2.74834300904904    0.64576575025261
C        -2.00145871692955    3.06393904694222   -0.37830154542903
C        -2.95004664257534    4.05617223605328   -0.19443230520456
C        -3.02639209107858    4.73278356749020    1.01357473404889
C        -2.15721032478156    4.41660469108906    2.04045099519294
C         3.11653720278201    2.96432511105356    2.94203072687970
C         2.68969539231143    2.79918471688798    1.58608472082457
C         2.79792629356831    1.56168670874422    0.96434635905875
C         3.29459388824594    0.44231153550086    1.67850371780076
C         3.75852040922375    0.60414425103882    2.98859641195055
C         3.67702151366906    1.87063445962700    3.61049494928983
C         0.52841929044115    6.97657029151060    4.45911402750338
C         0.14076162119477    7.48399883707438    5.69751638253483
C        -1.05155821882111    8.17022775789211    5.83238187823760
C        -1.86897543821262    8.36651233323320    4.73176768628650
C        -1.48379914629283    7.87893611775566    3.49455958181284
C        -0.29365918122226    7.18844462287066    3.35632375540931
H         5.11931779742774    4.28953121216867    4.06739501063202
H         5.05803482825924    6.47268468216924    5.21124313813061
H         2.92854924924563    7.71613975504866    5.35921662428426
H        -1.99083599666008    1.22784796679146    3.93097799594032
H        -3.50284258949842    1.02100737409596    5.89016851809704
H        -3.43072404332425    2.71795938472309    7.67841920936126
H        -1.86515643222042    4.61679775302386    7.51843841024843
H        -0.37472290926551    4.82639664941161    5.57240576132198
H        -0.37999633362897    1.97267098916393    0.52438142801993
H        -1.94661365959152    2.53607432382191   -1.31917332452180
H        -3.63428002417766    4.30234194141244   -0.99340218902394
H        -3.76945960149817    5.50446446237526    1.15411085135350
H        -2.20826440567441    4.93402751543526    2.98887870827449
H         2.36672150881588    3.67263594237468    1.02438872727925
H         2.53453376199541    1.45378420580573   -0.08308927664774
H         3.41385302440462   -0.50862814042841    1.16920379511331
H         4.23358351126918   -0.22070064003672    3.50893231176639
H         4.06548929806037    1.99971653705732    4.61596778519162
H         0.77003309881847    7.31704735645722    6.56050607863517
H        -1.34546052970000    8.55077090579437    6.79973252203101
H        -2.80215770843661    8.89957099075898    4.83855744496017
H        -2.11337958468153    8.03509439740674    2.63065075571466
H         0.00354388758594    6.81856441131611    2.38659478203485

