56
CSD_code = WERMEM | q = 0 | S = 0 | Stoichiometry = C23H24ClFeN3O4 | MND = 5
Fe        3.70414608981741    8.62183743451211    4.33668902562265
Cl        5.06203848078468    7.21875762610626    3.52203913075362
O         2.36293825905859    7.35287407816625    5.23771400945205
O         3.99333420352769    8.28801207190415    6.34361081248608
O         0.35074465710536    9.46284937734464    4.10700706113011
O         3.72958809577840   11.40453178571834    6.40548697872339
N         2.84817391167454    8.97158167268408    2.75130271128884
N         4.78376547943293   10.08033327682868    4.06536097360864
N         2.04819566129047   10.43639676005685    5.24200463285288
C         2.66016426178830    8.17548467228423    1.69720660686836
H         3.13369965053674    7.20907808115560    1.76868758526684
C         1.94137525129376    8.57422952487556    0.58940829734569
H         1.81114476293773    7.89601882262572   -0.23799142057979
C         1.40137494889322    9.85344161435772    0.55720236581700
H         0.84352023172497   10.20055288437544   -0.29803785176648
C         1.58384821855901   10.67730637529515    1.65691866946233
H         1.16280802765434   11.67051616048180    1.68408595325206
C         2.28516743832173   10.19275182143759    2.74666917820306
C         2.56751179052777   11.03926281208190    3.97030160070961
H         2.07931047116634   12.01636498364594    3.86511461835867
C         4.07167508619825   11.21623303661815    3.96071685385645
C         4.67141638214599   12.44605137259544    3.75552070585008
H         4.06464843823249   13.33305138004762    3.65775173162669
C         6.05518744079259   12.51908043303016    3.71870224765718
H         6.54790982300199   13.46798456317274    3.57759932593137
C         6.78617739737587   11.34893878968891    3.87860811135935
H         7.86380166775143   11.36236196394695    3.87036804554523
C         6.11582896156335   10.15453702826407    4.04255099276065
H         6.62432715715826    9.20801891792300    4.13631649692290
C         0.82680501956261    9.75605846791282    5.17497628464795
C         2.67556966606824   10.81996014525095    6.43290767026627
C         0.08925673327505    9.49011706394575    6.48109872215993
C         1.93920734153750   10.55633923778653    7.74003152621426
C         0.43786042183031   10.57924653658442    7.48659346743870
H        -0.09786339284279   10.40442127754240    8.42193337972549
H         0.13325141755008   11.55844365951635    7.10504309911955
C         0.45496604590396    8.11071415397398    7.05649247399507
H        -0.20184594911815    7.92073321370580    7.90937014808885
H         0.26637145589861    7.34723497156854    6.29903367759327
C         1.91020357721591    7.99280067107968    7.51329174763525
C         2.34808253869790    9.20113059389686    8.34317400889005
H         3.43421474963573    9.17244454516379    8.45116312853663
H         1.90020053116383    9.13020810336635    9.33776323608094
C         2.81700042600399    7.85565938195180    6.29339013935867
C         2.10421336552322    6.70341306328490    8.32125865490157
H         3.14669709155087    6.60153847479299    8.61331220546606
H         1.82997337326047    5.84179633980222    7.71727729305119
H         1.48598616370199    6.71778339686931    9.21753956030578
C        -1.41058162525013    9.50632957687050    6.16372292839108
H        -1.70868435747888   10.47623013583021    5.77108828478612
H        -1.98391502569589    9.30348806676561    7.06475002219228
H        -1.64326350630750    8.75219197100837    5.41736072037234
C         2.33976404529223   11.66855698760565    8.71628060196017
H         2.04984814607355   12.64240936180326    8.32715572406732
H         3.41604821614172   11.66843600983709    8.86274008517224
H         1.85051128471202   11.51627527105914    9.67503575921730

