71
CSD_code = WERQUI | q = 0 | S = 0 | Stoichiometry = C33H34FeNPS | MND = 8
Fe       -8.24539045300493   -0.84447632588202   -7.78285194677345
S        -7.56953431249831   -2.69699925191173   -8.92403186750082
P        -6.14839132833236   -0.34271438390056   -7.64523879478464
N        -8.43021544062687    0.16422367527909   -9.35851852640203
C        -9.19738379489752   -2.00275490264772   -6.27307963893321
C       -10.13209601623079   -1.64713922676794   -7.30177865479078
C       -10.25472900198334   -0.23770024637865   -7.31609901247836
C        -9.33179402267349    0.29457950764253   -6.37683090565029
C        -8.70573984038631   -0.80793526976271   -5.70642353920913
C        -8.95498558485957   -3.40695954645558   -5.82795935617879
H        -8.60048926235442   -4.01143848425809   -6.66171271068590
H        -9.88650100097997   -3.84648122351555   -5.46953085767867
H        -8.22279860911496   -3.44885140068921   -5.02631304819279
C       -10.93126431776996   -2.63135883388186   -8.08706656462911
H       -11.41368033812391   -2.15398290832244   -8.93569144543740
H       -11.70071061678590   -3.08714629119995   -7.46204385819955
H       -10.28092428065081   -3.42107076398867   -8.45710339068756
C       -11.22597967255759    0.53699110163883   -8.14523008896239
H       -10.89467901422928    1.56272409854941   -8.28980792038321
H       -12.19923488125642    0.55708801680701   -7.65209525034843
H       -11.35182492763068    0.08075939344793   -9.12520758358719
C        -9.20920559684856    1.71861233489573   -5.94054529015577
H        -8.16339589466482    2.01354553335327   -5.86940206056526
H        -9.66086701617309    1.85105379753870   -4.95567602112692
H        -9.70931328624456    2.38903757374680   -6.63476166766944
C        -7.84519978177254   -0.65740678466206   -4.49617804136365
H        -7.33576221457268   -1.58400827724724   -4.24941568236186
H        -8.45966473384027   -0.36096406661271   -3.64400338821499
H        -7.09086658723683    0.11181487638364   -4.64954291146945
C        -6.00833422330804   -2.29178638850019   -9.54487252465277
C        -5.40352045640446   -3.06006098084797  -10.54148888458422
H        -5.93849495950556   -3.90780169168138  -10.94260498665048
C        -4.14087293907485   -2.74128718557610  -10.99351738535550
H        -3.68434164347404   -3.34052539161690  -11.76853508454141
C        -3.44496020181530   -1.66529470116421  -10.45585639731546
H        -2.45058086450404   -1.43130259507363  -10.80640729856502
C        -4.02704699131783   -0.90190201602868   -9.46053990985967
H        -3.48514846128224   -0.07524758314355   -9.01997601518105
C        -5.31247697731885   -1.19006078726123   -9.02282422239511
C        -5.58299531768344    1.38092845639967   -7.77707302007909
C        -5.36438697095041    1.96973655101259   -9.02062116110000
H        -5.42160828202405    1.36149193755300   -9.91294343756689
C        -5.07646303298216    3.31861623507525   -9.11407166268154
H        -4.89771651369111    3.76393900148282  -10.08211599815962
C        -5.02147498689098    4.10071564429506   -7.97135665034539
H        -4.79495483493375    5.15410165530954   -8.04598035249161
C        -5.26428472775590    3.53022258960974   -6.73209275909081
H        -5.23147201751470    4.13950020259726   -5.84010097702176
C        -5.55231990231901    2.18141665848823   -6.63699314755346
H        -5.74381967419568    1.73457808954144   -5.67004994871565
C        -5.08868597080551   -1.03948244033974   -6.32943603694353
C        -3.93503241207511   -0.45168334246553   -5.82632563027318
H        -3.63707154060404    0.53557576999369   -6.14991978073361
C        -3.15930676616632   -1.13559849994390   -4.90599035129599
H        -2.26630160100591   -0.67232485645418   -4.51092228076150
C        -3.51580893777039   -2.40938256090144   -4.49705304870390
H        -2.90448488635434   -2.93649708329848   -3.77908254296211
C        -4.64998922622502   -3.01112501672115   -5.01945278504787
H        -4.92061549253653   -4.01221847689809   -4.71550385245305
C        -5.43113429156605   -2.32908676406420   -5.93153895562418
H        -6.31358510464961   -2.78301901413137   -6.36055971912494
C        -8.89444614779756   -0.36475546524112  -10.49587903791071
H        -8.96364714184884   -1.44152119967280  -10.51432667259387
C        -9.25308736214786    0.39204599993706  -11.59261907611978
H        -9.61350079130824   -0.09791895282046  -12.48348990938542
C        -9.14853507192019    1.77357787133008  -11.52951755465110
H        -9.41720027616567    2.39444525373623  -12.36981357879203
C        -8.69377839701955    2.33020102499283  -10.34175697977759
H        -8.60219046697295    3.39879763171578  -10.22400929341687
C        -8.35231326800130    1.49833795729777   -9.29768801191205
H        -8.00278903962241    1.90191274211283   -8.36155305329604

