95
CSD_code = WERZAX | q = 0 | S = 0 | Stoichiometry = C50H39F4NiP | MND = 5
Ni        4.87693044029343   18.22481342294917   22.51005362761915
P         4.44945789656470   16.99287898327672   20.70281924165198
F         6.79635841291179   18.99623502658811   20.74600228215970
F         6.76443729378503   20.52109268468062   22.25704607856122
F         8.65809434595841   18.13013315967649   22.22017296431938
F         6.94035322095736   17.10020026634491   23.05410807183604
C         6.49309707281509   19.18025307967734   22.08602202274363
C         7.51306005336280   18.37196171201369   22.91197960483954
C         7.85355241654951   18.95287740202159   24.28301557139129
H         7.90375914363006   20.03852671267127   24.19800427125045
H         8.84992788233251   18.58140186401224   24.53432236784336
C         6.88981620500574   18.53328077917892   25.39390353020467
H         6.75128312932231   17.45324851056563   25.32995289831486
H         7.37581907798378   18.75537475894264   26.34748346944477
C         5.53071788458749   19.23452696564897   25.40378580695138
C         4.66462150281251   19.28176184485717   24.09513098461834
C         3.41054045136102   18.52140362217698   23.99548411530181
C         3.50277399363593   17.11142174472912   24.03094908817270
H         4.45301307802562   16.63888870737309   24.28182733841050
C         2.36059612263396   16.33087437356808   23.91035194600692
H         2.44061998247164   15.25421694765756   23.95715465688452
C         1.12682379522927   16.92718346838718   23.73893073115713
H         0.24034504135548   16.31823809145813   23.64407085547161
C         1.02316888321341   18.31377280791206   23.70598176499445
H         0.05297595256382   18.77524746332547   23.59171608015823
C         2.14420528556379   19.10545149016994   23.82438102341755
H         2.05510166681061   20.18217910101341   23.81659788287823
C         5.57585523207181   20.75427719969812   25.24325233299681
C         4.75828773933931   20.75649270057410   24.15142555348837
C         4.65763061732093   18.79395179309767   26.56066064043897
C         3.57845654081218   19.59271068154943   26.93635740822607
H         3.40617360624152   20.52818187335162   26.42491525120331
C         2.72591875815437   19.21391900849557   27.95442073646351
H         1.89964579119049   19.85473573350977   28.22547405551014
C         2.92777325689356   18.01973688276010   28.62529265839284
H         2.26327580007329   17.72052928880247   29.42206879377522
C         3.99176748162347   17.21565764185538   28.26297211542874
H         4.16356582286488   16.28071977498938   28.77670197872846
C         4.84621738400787   17.59661776621029   27.24189101185161
H         5.66338138843369   16.93859192140016   26.99282350388818
C         3.90275032914988   15.31953376748576   21.19998652513259
C         4.73630261820021   14.62034205286554   22.07195164404984
H         5.65828721639445   15.07899738399309   22.40520351330914
C         4.38629467145619   13.35998764872535   22.51765685738612
H         5.04102745552499   12.82305422625096   23.18901435694001
C         3.19079912325474   12.78974796096267   22.10918337217311
H         2.91224568890815   11.80659537576172   22.45947606733297
C         2.35056466698853   13.48741374013848   21.25843730547668
H         1.41361889358274   13.04922927338135   20.94603202959219
C         2.70122469428499   14.74761201260494   20.80450074821140
H         2.03233453081006   15.28555125070620   20.14886392072385
C         3.03713716611291   17.55972767531795   19.69416568673716
C         2.17522270280954   18.50208288681837   20.24114491926170
H         2.36927483618356   18.88427375417819   21.23526716308162
C         1.07847978549450   18.95055240910421   19.52709697345312
H         0.41903653489718   19.68792831125428   19.96110125766770
C         0.83372899928895   18.45558796447559   18.25769824655053
H        -0.01889328039991   18.80523510704982   17.69425826939060
C         1.68571706903550   17.50970366759850   17.70771967183234
H         1.49281689933908   17.12022639126172   16.71858482634549
C         2.78290921919591   17.06107035209742   18.41912537767648
H         3.44580907624701   16.32472792102853   17.98662680941273
C         5.65457102975498   16.60306547688205   19.38664225163571
C         6.34669585078425   15.40055757797402   19.32400133423306
H         6.16726422535990   14.62797493961508   20.05734566370773
C         7.26976021199889   15.18230727630062   18.31559865078199
H         7.80319494721841   14.24353680967094   18.27484565048591
C         7.51366446708274   16.16066964767873   17.36806108864144
H         8.23751521366193   15.98759923943515   16.58530262578397
C         6.83181979198692   17.36569778241063   17.43107535222581
H         7.02368754204498   18.13518263562581   16.69805086816133
C         5.91052320689755   17.58820726901022   18.43493633124830
H         5.38804301502110   18.53266164020341   18.49401355465118
C         6.29834259177697   21.73357595827503   26.00733101686211
C         6.69287585380980   22.94248927183442   25.42385424762685
H         6.45266889449226   23.12727963049735   24.38783599918804
C         7.40914994460527   23.86806991523650   26.15480465428604
H         7.71342336137511   24.79630295782216   25.69329688313999
C         7.74379692146429   23.61033241382995   27.47579730318717
H         8.30189471736475   24.33861864907471   28.04549572290717
C         7.36426834104135   22.41283860065143   28.06115440233143
H         7.62605868594936   22.20807236754842   29.08936983718932
C         6.65291146424445   21.47804226109253   27.33546631271225
H         6.34402460532996   20.55174860738761   27.79838193483540
C         4.11998200992088   21.72994017794815   23.29182767648258
C         3.75003005617864   22.99614151521061   23.74590493715683
H         3.96561767887244   23.28021673081185   24.76581920494193
C         3.09278172647055   23.87135541440359   22.90201818700624
H         2.80631072814383   24.84909654500800   23.26215701110720
C         2.79568566185730   23.50012348193230   21.60019736244661
H         2.28207709272260   24.18925394754413   20.94584584305406
C         3.15915851241129   22.24362150999540   21.13953731532509
H         2.93153870830805   21.95058454719895   20.12469317821321
C         3.81279842653364   21.36525327930025   21.97873017713854
H         4.11937596556427   20.38063353210693   21.61640756267797

