25
CSD_code = WESBIG | q = 0 | S = 0 | Stoichiometry = C11H10MoO3 | MND = 9
Mo        2.37714181470167    3.71438546318129    3.23196295087213
C         3.81548801514704    4.61036114298227    4.14894608285301
C         1.51667113216001    5.43823693200678    3.28249664012602
O         4.67249253041337    5.08794301838471    4.73756038447732
O         0.95491183854751    6.43340379727002    3.32554334568969
C         3.21525337558122    4.38328903997517    1.63127386532544
C         1.99782259874949    2.12926830835619    4.93292841973474
C         1.28023187438431    1.91025935401255    2.18594588795376
C         0.75319675372359    2.57307288541172    4.48272833292389
H         0.01757089017123    2.93563890309976    5.19532979615613
C         2.89717216026648    1.55941822231314    3.98959643474930
H         3.83330378859202    1.13550596541501    4.34270447452357
C         2.54652571912333    1.45417711772163    2.64621305852548
H         3.20921349524058    0.94795664486311    1.94937779461105
C         0.39679633422231    2.46535580194225    3.11336502052104
H        -0.60550330738888    2.74790488597267    2.80318458203930
O         3.69930030116524    4.71723330249435    0.64986225737597
C         2.35201335098721    2.13695177828304    6.39041418609154
H         2.19003249360318    1.14405630999603    6.81652514792719
H         1.73840626481747    2.84992926015368    6.93787936267692
H         3.39936805671396    2.39914484479807    6.53406415588867
C         0.87910650993298    1.68699285434006    0.75788760993804
H         0.55974803007628    0.65124266889334    0.61994536051572
H         1.71506474969748    1.87502285823844    0.08555534366442
H         0.05527122937048    2.34044863989772    0.47700950482941

