25
CSD_code = WESBAY | q = 0 | S = 0 | Stoichiometry = C11H10MoO3 | MND = 9
Mo        0.36649810889341   -1.80801414444947    3.04063203187443
O         2.19149723242041   -2.58891706911219    0.70026698846954
O         2.26763604541828   -3.43701258136504    4.81899582713005
O         2.28961591539869    0.54589110753185    3.46279982243772
C         1.54565901486918   -2.29562036461677    1.59800222531421
C         1.58834462510932   -2.81699414118172    4.13973258806316
C         1.60670416788973   -0.35888593371937    3.30706880651255
C        -1.51104625693527   -1.43173041542108    1.67139781303816
C        -1.54563314112244   -2.78496564195980    2.10733295030550
H        -1.64950733977253   -3.57218400202866    1.36547127651498
C        -1.54996241419358   -3.10667754037182    3.46213518241296
H        -1.65659713709168   -4.13886939764639    3.78137830773348
C        -1.51485815151765   -2.07063918483254    4.42681621792682
H        -1.59445107554643   -2.31338064076369    5.48216836404992
C        -1.48099494427088   -0.74219524637624    4.01124009094626
H        -1.53475795040013    0.05571046646583    4.74677712475956
C        -1.47654228331149   -0.40431306419333    2.62968737042744
C        -1.56106434899609    1.03728496765414    2.21949876074163
H        -2.54069960122906    1.24541941572085    1.78357526750767
H        -0.80509831814721    1.28158510311374    1.47454691251112
H        -1.41896654605463    1.69268767481445    3.07639687810806
C        -1.63517257988848   -1.12006793173588    0.20802568392171
H        -2.60821233786414   -0.66803084960775    0.00294269820704
H        -1.54286078647272   -2.02469225344168   -0.38954417209619
H        -0.86652989718485   -0.41898833247676   -0.11404501681776

