82
CSD_code = WESCED | q = 1 | S = 0 | Stoichiometry = C37H39IrN2O2P(1+) | MND = 6
Ir        4.30873913278355    8.99736652695064    3.22815740402760
P         5.58438367700323   10.61933091526537    2.14479880452938
O         5.86011248605641   11.84503153022281    3.21027366204967
O         7.08924287831866   10.25122768561463    1.68171696224192
N         4.37567504026069   10.27647098292811    4.91463960909973
N         5.08870522375502   11.26312138726018    0.69156107101894
C         4.97264386065502    7.46796638766532    1.88413966871475
C         3.74758270239638    7.95293813027452    1.41801985262746
C         2.44612668369046    7.18540785685660    1.53500982031896
C         1.67109003711539    7.53196114634355    2.81990385205091
C         2.56293694766309    7.93903624527308    3.96801907340948
C         3.69270093661111    7.24401384661644    4.37844911081117
C         4.15039462338437    5.94510613410457    3.75376760722817
C         5.16789993496975    6.16418572096296    2.61942198500512
C         3.51794867665691   11.29688429164861    5.04972901405101
C         3.66588050042966   12.24613814004950    6.05206758567813
C         4.73108700160380   12.15429601758769    6.92819837044006
C         5.61406233384978   11.10105430458972    6.77601524333048
C         5.41106995872418   10.17622367260765    5.76127334248730
C         2.37877411739100   11.42562423432225    4.09013180295320
C         6.36516421032024    9.03528497575574    5.61544030603199
C         6.83971627883679   12.79985849691183    2.97015292835622
C         8.17274207554298   12.46128497578381    3.03341229369704
C         9.14876324662077   13.44992384289347    2.71713766346332
C        10.52267464323906   13.14817858687916    2.60488281433357
C        11.43112307647769   14.12317435660180    2.29769752514202
C        11.01613733962522   15.44610898587098    2.08662666241082
C         9.68918762973162   15.76480925178927    2.15658509779383
C         8.72447096852883   14.78043364691412    2.45584983819705
C         7.34793850598694   15.08879423727366    2.48258375139600
C         6.42106549167291   14.11340459024678    2.70809717141427
C         8.04194931976950   10.02358268747311    2.67244964906656
C         8.56071276466123   11.08165378978179    3.38577797403349
C         9.46490986719422   10.81006532452210    4.45216912893908
C         9.90320669999354   11.81535068540171    5.34045116682360
C        10.77047505050973   11.52189790838970    6.35635666663001
C        11.24518081886965   10.21377134833872    6.53489745535769
C        10.81702441868592    9.21192597755566    5.70986231441292
C         9.90853415236247    9.47651240864820    4.66340739979525
C         9.42230448250712    8.44479711863580    3.83235815425913
C         8.48174038463745    8.70691528930803    2.87822708738245
C         5.93656398527059   12.07488313610413   -0.16211658513166
C         3.67563387675683   11.47206877106000    0.46278052973667
H         5.86131343200602    7.79598368185526    1.34686201769280
H         3.79230581110835    8.62890829296452    0.56739513584120
H         1.81795864843452    7.41944071326308    0.67550985975221
H         2.66024476813539    6.11795659243295    1.49463143597135
H         0.98342106432854    8.35368636037505    2.61243717080221
H         1.06130452033498    6.67873146371224    3.13044874678702
H         2.05591062735056    8.54593447153239    4.71571779763760
H         4.00586889017521    7.38472145928309    5.40926296763817
H         4.61349182634519    5.32594357014750    4.52248310413195
H         3.28012732633256    5.40316991405265    3.38522965308622
H         5.11511916618151    5.33919480868253    1.90318668608799
H         6.17575027648391    6.15758704129029    3.03932059086047
H         2.95234323677008   13.05097877655097    6.12707238871793
H         4.87275837751698   12.88741781211475    7.70640876041456
H         6.46386104576539   10.98858809992035    7.42995587950890
H         1.43188284532164   11.41144213837885    4.62745882551690
H         2.44701163989917   12.37652453164019    3.56531937471204
H         2.38763497926200   10.61808704962630    3.36092242203256
H         6.15322860813732    8.27676036184580    6.36846257385876
H         6.29028735139565    8.57872419752773    4.62930387458037
H         7.38546726397879    9.37814822091976    5.76952984126767
H        10.85380407092071   12.13152833537419    2.74988483429172
H        12.47803879863079   13.87551766656452    2.21117270121025
H        11.74905428082546   16.20351456559873    1.85531915319053
H         9.35467013258518   16.77506513688677    1.97314993039564
H         7.03716618650495   16.10571142273719    2.29692730488438
H         5.36201469476404   14.32292843703925    2.70271632473335
H         9.53671226033293   12.82253632124586    5.21523637496972
H        11.09543689297220   12.30026481291637    7.02965577340877
H        11.94058648916834   10.00458256082400    7.33298627175133
H        11.16076388769746    8.19784256508122    5.84954537829950
H         9.78919656897669    7.44041998946847    3.97792682055905
H         8.08294180544918    7.92619364277700    2.25001683733278
H         6.98237523905590   11.86820734060981    0.04670672233313
H         5.73352792080355   11.82392872516003   -1.20511093384764
H         5.75018501046289   13.14366286015043   -0.01670087121074
H         3.10225662332092   10.84394229109706    1.14124508148029
H         3.39071684971588   12.51723231543634    0.62268787681301
H         3.42648454143125   11.20592590364309   -0.56706552310688

