76
CSD_code = WESPUF | q = 0 | S = 0 | Stoichiometry = C24H40BCdN7O3 | MND = 5
Cd        2.18975074875321   12.47734707975162   11.76736206732271
O         0.02796498560383   12.82488282956283   11.75247990470022
O         0.82549455388283   10.91610487820793   11.25680972976243
O        -1.28068821961191   11.22761697203420   11.23432875801580
N        -0.17340399335782   11.64903813490219   11.41042692347104
N         3.59745652239678   14.19837337548411   13.60992971841370
N         2.61932992904986   13.27697712670747   13.71777327276764
N         3.82648259941931   14.79749302026004   11.14932791994696
N         2.82115475856723   14.13308131160504   10.54593998234930
N         5.06132940790528   12.83335800512668   12.09898474774529
N         4.25053532865526   11.82360647422971   11.72455504058666
C         3.69473612820625   14.89393113815767   14.75813493071854
C         2.75015928774298   14.39398862648919   15.63374199331826
C         2.09809339696751   13.36976788458853   14.94142236380425
C         4.65460881135602   16.00436047218883   14.99466176992196
C         0.98628720314169   12.48623307712272   15.44354578621813
C         1.02202730393541   12.41817357906076   16.97510623412254
C        -0.35523624836956   13.08510123721210   14.99926412437957
C         1.14764368833891   11.06668094177672   14.88903756844097
C         4.15109187459146   15.88489878042567   10.42588271986630
C         3.32590973311089   15.91433014876158    9.31795806083368
C         2.50610301024860   14.78812972800410    9.42761908887092
C         5.21525781492990   16.85816774199155   10.78787412188756
C         1.42473597405799   14.34042008077929    8.47928876725405
C         0.06097689683596   14.71741368626441    9.07378501156380
C         1.58823412898274   15.03709740970793    7.12361205326915
C         1.51374575952984   12.82545780576284    8.26217830857515
C         6.33460902652392   12.40063352119846   12.14248241561881
C         6.33834510993397   11.06671794202039   11.78079186649502
C         5.00377088107114   10.74210878164473   11.52467906948551
C         7.50260614556915   13.23904270534801   12.52198293055940
C         4.43489649415624    9.41721860976065   11.09174351612730
C         3.48165383815404    8.90009659072141   12.17608262337520
C         3.67283171097484    9.59909386500867    9.77376221571090
C         5.56060785676163    8.39916878528950   10.88456938817539
B         4.54886737630991   14.25692714926218   12.39871027772248
H         2.57121669454901   14.73092164560422   16.63356727014099
H         4.47696435070430   16.43083916055956   15.97825971569092
H         4.53157879498722   16.78387968644682   14.24543734624249
H         5.68219378369622   15.64829122756352   14.94762911839021
H         0.26646691071311   11.72040910013572   17.32901648369664
H         0.81412289309989   13.39026227857544   17.41395269564194
H         1.99518643906268   12.07906015915060   17.32336071782249
H        -0.38891831488307   13.19725117173897   13.91795772937417
H        -0.49451743351029   14.06776220894999   15.44532695260262
H        -1.17577573976992   12.44318441837518   15.31220653251288
H         1.11609419212616   11.06285059032820   13.79965377137407
H         0.34513320948163   10.43012541381476   15.25593944766459
H         2.09940666180556   10.64314632313001   15.20669179693657
H         3.33056458966844   16.65315387772876    8.54393620737955
H         5.22425566133027   17.66730766921239   10.06246251892452
H         6.19317374669358   16.38004121334518   10.79078415121933
H         5.03939322907684   17.27458712646716   11.77750897284434
H        -0.06521593241490   14.28150336544114   10.06240665620795
H        -0.74067979222994   14.36419662815367    8.42889620803808
H        -0.02166588396547   15.79839454819275    9.16781378647968
H         0.84278165011915   14.66101819594138    6.42657988314568
H         2.57526309348374   14.84670153910426    6.70799186121063
H         1.44974216583385   16.11090496191154    7.21824201738467
H         2.47680574931071   12.56282516353956    7.82666764015004
H         0.72699538708413   12.49856684740058    7.58542770252727
H         1.40355318988329   12.28590835592276    9.20276586692660
H         7.19668890415744   10.43112205512066   11.71596455051199
H         8.40535569237435   12.63505233361613   12.48673122010104
H         7.38317037292294   13.63412655187415   13.52901243347883
H         7.61562236286355   14.07867829452051   11.83874658171661
H         2.63545150525107    9.57579673881106   12.28998540854576
H         4.00031326418558    8.81672825393778   13.12944555235675
H         3.10255403238167    7.91877250631139   11.90049206988335
H         3.30405931590049    8.63837884778838    9.42204413125693
H         4.32677726532348   10.01996904422258    9.01210773745185
H         2.82112208867469   10.26205695384880    9.91670269989787
H         5.14127211899673    7.44963577488819   10.55985963102309
H         6.10635331713791    8.23127672639659   11.80993393403556
H         6.25723292290809    8.74255387715087   10.12339967447422
H         5.46093771675955   14.95641966831183   12.65415605317227

