77
CSD_code = WESQEQ | q = 0 | S = 0 | Stoichiometry = C38H32N6Pt | MND = 4
Pt        0.00005460777241   -0.00005736426979   -0.00003297859457
C         1.62313557965607    1.87242741721994   -0.23921685965317
N         0.80719033176374    1.43406844708422   -1.19510391344520
C         0.79060844312459    1.77457618860084   -2.53581668839323
C        -0.43887731617181    1.80436709584996   -3.19860689297501
C        -0.50318884366344    2.11244055895683   -4.54128262791536
C         0.65375803042506    2.39896146951781   -5.24836261849062
C         1.87806420406555    2.35827802440628   -4.60224745393413
C         1.95460933652361    2.04317640771822   -3.26014204326662
N         1.47590111139384    1.10991907639445    0.84432213002597
C         2.06801184271915    1.28150529612721    2.08535246330933
C         3.44510625688713    1.45670111646633    2.24806199156392
C         3.98326813834065    1.58915255539028    3.51511286410035
C         3.16989084125574    1.53895555672742    4.63396322444876
C         1.80561679726021    1.34338148644996    4.48125087632501
C         1.25788778029344    1.21799990714664    3.22203616592348
N         2.44505824763529    2.96299755003563   -0.28525714683651
C         2.30993058985285    4.09620117525558   -1.09674732654805
C         1.07473415390534    4.51045871298698   -1.58482960076327
C         0.99644825180414    5.61872121823282   -2.40657476374242
C         2.13534974049183    6.33518518344670   -2.73192484580385
C         3.35976856425083    5.94802286317538   -2.21353219042242
C         3.44980846701488    4.83612661540816   -1.39902023372306
H         3.08880335551460    3.04687514397455    0.48964330450131
H        -1.33389357718526    1.58119267785514   -2.63567543218817
H        -1.46157533810706    2.13095620893426   -5.03950446120050
H         0.60289851167668    2.64590666822746   -6.29825233039384
H         2.78503191061100    2.56877182759596   -5.15050653057839
H         2.91553638569635    1.99137275477574   -2.76973821903007
H         4.09903561583164    1.43957838002105    1.38610723711625
H         5.04994266094258    1.72160677239420    3.62783129910318
H         3.59840168748840    1.64023452812075    5.61964230392820
H         1.16617506143695    1.28807882520041    5.34980218763974
H         0.19678985149841    1.06189954215583    3.08692109502436
H         0.18008894493617    3.97332826063138   -1.31326903990200
H         0.03519570672030    5.92697760424134   -2.78910516502186
H         2.06863756261738    7.19727594072658   -3.37766184314002
H         4.25091991677793    6.51086540479842   -2.44873177259340
H         4.40511032263517    4.52971895597982   -0.99688141973163
N        -0.80718112282077   -1.43408269442378    1.19508102561072
C        -1.62315369780957   -1.87243766556840    0.23921347618839
N        -1.47593009719310   -1.10989249824759   -0.84430019903494
C        -2.06808677911411   -1.28145068389790   -2.08532032108280
C        -3.44518740333751   -1.45663120153414   -2.24798961985047
C        -3.98338332617160   -1.58907638796373   -3.51503256201725
C        -3.17003465109126   -1.53888813669233   -4.63390631024987
C        -1.80575287944591   -1.34333296091066   -4.48123253753864
C        -1.25798900863900   -1.21795572362969   -3.22202748703215
H        -0.19688635398255   -1.06186832749665   -3.08693079767989
H        -1.16633637482753   -1.28800351186609   -5.34980766701070
H        -3.59857973696098   -1.64012749956385   -5.61958159027979
H        -5.05006448125433   -1.72150340747060   -3.62772887901278
H        -4.09909379934162   -1.43951046114778   -1.38601637810291
N        -2.44507541143747   -2.96300619722851    0.28526120056505
C        -2.30993302882469   -4.09619882145530    1.09676274249919
C        -1.07473111501915   -4.51047910076969    1.58479520825576
C        -0.99644872127306   -5.61875553248592    2.40651493785560
C        -2.13535100570511   -6.33520935794859    2.73188250800556
C        -3.35977866564804   -5.94802311200981    2.21353926313952
C        -3.44981656406092   -4.83611444451648    1.39904993945494
H        -4.40511762557256   -4.52966856979095    0.99694511597450
H        -4.25094718926758   -6.51081578620141    2.44882115295229
H        -2.06864361990420   -7.19727968644395    3.37766438165248
H        -0.03519791461449   -5.92700984916276    2.78905618767652
H        -0.18007832932734   -3.97337894547616    1.31319371167402
H        -3.08889132402250   -3.04686541061644   -0.48958057425954
C        -0.79055340161561   -1.77455621185965    2.53580134216647
C         0.43896293067798   -1.80439595369730    3.19852318516599
C         0.50333635647913   -2.11254642479869    4.54117314033471
C        -0.65357450557589   -2.39911504799379    5.24828756754519
C        -1.87790887877230   -2.35839654613955    4.60223561995871
C        -1.95451740268827   -2.04321378310846    3.26015702493646
H        -2.91546140321809   -1.99142316744216    2.76978899497796
H        -2.78485856584094   -2.56881023445483    5.15055402971370
H        -0.60267828142140   -2.64599053313957    6.29819444195026
H         1.46173429459869   -2.13097149182762    5.03937907826027
H         1.33395534835008   -1.58122068497187    2.63555690191775

