46
CSD_code = WESRAO | q = 0 | S = 0 | Stoichiometry = C20H22N2OPt | MND = 4
Pt       -1.42000696272389    3.20160260475599    9.41316280211045
N        -0.00968927423937    3.80138901407975   10.65832170628568
N        -3.01011365602817    2.55908463176211    8.28651064726186
O        -2.62555195091694    4.38202187913117   10.70768353304720
C        -0.38276662847472    2.28526932729688    7.95032562195178
C         0.91544083464305    2.50403938810184    7.49313379116351
H         1.56732994614945    3.19713951418988    8.00795600083534
C         1.40788716552196    1.86506869842227    6.36429979144136
H         2.42350302281758    2.05159796587286    6.04389630957065
C         0.60842961816793    0.99740386821816    5.64369607111478
H         0.99513131630233    0.49471366458881    4.76926693622986
C        -0.70426728501443    0.79866184937151    6.03790488403040
H        -1.35185890441021    0.14886661671082    5.46421327840209
C        -1.18783870394237    1.43999773187564    7.16447978636995
C        -2.61895481346216    1.30256473527989    7.61606663298015
H        -3.29814691384445    1.08159904079308    6.78086096808062
H        -2.69512777434486    0.48699834157861    8.34407387255855
C        -3.28994538512614    3.59421692142624    7.28950199326945
H        -4.16938745845166    3.32896795869657    6.68891930637325
H        -2.43072038475754    3.70846734313562    6.62680632250378
H        -3.47972347220929    4.54202675330297    7.79524671778963
C        -4.19547632778791    2.35068624310351    9.11681587522338
H        -5.04604408675240    2.01889960141711    8.50869595307813
H        -4.45252352966704    3.28072943164905    9.62123492375107
H        -3.98465942852542    1.59711078122151    9.87672245359359
C        -3.79440457394178    6.33243120784420   12.43599067506097
H        -4.26898856311150    5.92280787180478   11.54781860985275
H        -3.93271257102683    7.41254498418070   12.45253031233604
H        -4.28789073825103    5.91373341629660   13.31399737152385
C         0.76511805742419    6.95270922721787   14.42100134552995
H         0.19343367051211    7.68318999439383   14.98765527561700
H         1.59545002811778    7.46834345710701   13.93837719002454
H         1.17754346587536    6.22560708303458   15.12111616344843
C        -1.85932165454871    5.01585767421654   11.53091991683042
C        -2.33625754672756    5.97965409868310   12.43162797212359
C        -1.45757867176033    6.58656337643262   13.32366853916323
H        -1.86435248969914    7.32731677270373   14.00006419714025
C        -0.11474420529203    6.28174956125332   13.40629182941900
C         0.40808760893126    5.31431146515664   12.52457249817737
C         1.74753535955766    4.87334971037403   12.53725871433354
H         2.44560406608205    5.29503863279755   13.24355452475500
C         2.14789534963368    3.89473145011182   11.66717104987312
H         3.15850225532796    3.51712756022677   11.67800350475499
C         1.24047788976768    3.38217916841426   10.73421424949948
H         1.55093634899942    2.61547130333858   10.03987299830217
C        -0.45745204870531    4.71575807838795   11.56309688323758

