35
CSD_code = WESRAN | q = 0 | S = 0 | Stoichiometry = C10H10N4O10Zn | MND = 6
Zn        0.00803036924500   -0.00561853835685   -0.00032172161388
N         1.19878897426911    2.61668122174197   -4.45090256567126
C         2.09697948587424    1.56592157804936   -4.47328239972685
O         3.03254271554746    1.52194853793245   -5.22747454127255
N         1.81101798309167    0.57797165243548   -3.55402040504341
C         0.77465045375118    0.55621770322180   -2.64491354168479
O         0.66222446907090   -0.42509223140136   -1.90848141173116
C        -0.10015895331840    1.69678148475457   -2.69397229166031
C        -1.30980180503107    1.82290521780409   -1.75942366465663
O        -1.34898882314444    1.02065565730037   -0.77392755953519
O        -2.14748653032356    2.65602115079783   -2.03935034559924
C         0.14885013643766    2.67353496895815   -3.59644161957725
O         1.43158295479288    1.65644076272669    0.14071109810159
H         2.16540389728682    1.14956667884245    0.51282448783301
H         1.07132346565228    2.19048295742781    0.85822112772291
H         1.37244597944377    3.36124595328824   -5.11399774080824
H         2.45477546297753   -0.20747969243726   -3.52819424067362
H        -0.50682125857643    3.53120647020369   -3.65280063120696
O        -0.63937495830611    0.42982789631898    1.90732665089356
O         1.35624776860069   -1.04043527586393    0.77800916675873
O        -1.40977822007107   -1.67439026618486   -0.14051978773572
C        -0.76595785972679   -0.54967356087142    2.64383262609013
C         1.30677146539263   -1.83989407247446    1.76539433239604
H        -2.14541645524481   -1.17497392750163   -0.51898421698453
H        -1.04379246172264   -2.21243686369770   -0.85205651855003
N        -1.80568015006659   -0.55906706306891    3.54919074735023
C         0.09591948974991   -1.69991299093074    2.69644293223699
O         2.13532237638980   -2.68081625914587    2.04914911488729
C        -2.10553798562060   -1.54288603721157    4.46840841970613
H        -2.44080523545585    0.23327456898459    3.52006572668089
C        -0.16696382776410   -2.67306128002476    3.59883262837164
N        -1.21900230604104   -2.60356696113966    4.44986931572362
O        -3.04295894801729   -1.48785280383475    5.21958522613660
H         0.47874786263500   -3.53804472102720    3.65809544723887
H        -1.40309953177421   -3.34548191562124    5.11310615560618

