103
CSD_code = WESSOD | q = 0 | S = 0 | Stoichiometry = C48H40Cl2N2O6P2PtS2 | MND = 4
Pt        1.91169457174926    2.19315500084536    4.43652675032606
Cl        0.14508972935120    3.20963159892643    3.36233896472188
Cl        2.42088440842447    4.05302890983686    5.69697818522669
S         1.93338709142769   -0.18516653519306    6.73756453216745
S         3.53214187802476    0.81944136256046    1.89433513349073
P         3.89201514012641    1.40634479100397    5.20542567186501
P         1.10181930064092    0.30162509237480    3.48792275119729
O         4.34234258716558    1.55985896687926    6.75937818025518
O         4.37486663156364   -0.12717844166012    4.93902970028735
O         6.84972561725471    4.36108296452259    4.65288711740262
O         0.61369347990221    0.25054915190543    1.93894135272605
O         1.90264998993801   -1.11713072031319    3.56073838608320
O        -3.04834392363184    0.08110656571652    4.20205965025048
N         5.13832917013433    2.12128598136874    4.38705893200411
N        -0.23483486110653   -0.21685000762399    4.31177558559351
C         4.33637680429728   -1.13550117459743    5.85355299038397
C         3.37279618406673   -1.24166922651247    6.82863297781547
C         3.44272071142750   -2.27304726461118    7.79963537900107
C         2.50833612828920   -2.39628944585744    8.84609432410815
H         1.70630264346885   -1.67851380977406    8.91427159264328
C         2.61784357519966   -3.40087058641031    9.76791971513724
H         1.89664313213322   -3.47993080463645   10.56746652686321
C         3.66206312677899   -4.33274616097896    9.68660697834956
H         3.73231407765450   -5.12069592345940   10.42140060194009
C         4.58458306439046   -4.23983113065042    8.68195803973798
H         5.39542939497729   -4.95021965222695    8.61035839654584
C         4.50441558362418   -3.21381712982330    7.71907174690066
C         5.44733462151542   -3.10284792503353    6.67463196317256
H         6.23889400456497   -3.83441152900974    6.60715198303157
C         5.37588230845159   -2.08419649386579    5.77279291533367
H         6.09705888022629   -1.97017269647723    4.97844663632191
C         3.45820297665987    1.82578160548099    7.77326771550660
C         2.30251597208862    1.09775428325118    7.92491150390321
C         1.38724639174656    1.40216349389259    8.96047064795711
C         0.16538292659424    0.72062349578620    9.12137177254171
H        -0.08508560110334   -0.06375063545318    8.42291790243665
C        -0.69398356605494    1.05313651828132   10.13141598356255
H        -1.62949724455829    0.52529769653632   10.24225152751333
C        -0.37190060733612    2.08274421653359   11.02723241658174
H        -1.06304925685558    2.33509753998782   11.81750123538121
C         0.80699249137929    2.76238363794311   10.89641836904424
H         1.06039263725748    3.56061396226586   11.57868474955447
C         1.71559554855352    2.44636668907318    9.86581142850233
C         2.93071351066729    3.14461181109405    9.70466982443380
H         3.17060372460728    3.93877458942957   10.39544235394624
C         3.78247469207731    2.84657903610224    8.68178744237620
H         4.69885923560176    3.39375187928473    8.52794472142255
C         6.51046295507383    1.97012028635284    4.83648033119768
H         6.57371079977398    1.12909527451929    5.52857904783925
H         7.14091074992113    1.76895277105356    3.96215127050025
C         6.98093594751281    3.25847154904853    5.51672331823424
H         6.38374885658119    3.42178321586780    6.42690031065949
H         8.03906781817271    3.19620904041493    5.77920018003648
C         5.50084211528629    4.54020905321121    4.26857675695705
H         5.48384355677453    5.40239139749335    3.60091657396676
H         4.87960872816142    4.74607875840985    5.15108934061598
C         4.96190601313910    3.29702410892306    3.55913701696724
H         3.89549897415529    3.42727443853151    3.33325692025619
H         5.51121033820635    3.14148805279561    2.62344831420865
C         2.61491678989395   -1.67012706958344    2.54009580396138
C         3.30958125555817   -0.93159242248155    1.61145921277578
C         3.96019045422064   -1.56959374438121    0.52487693886700
C         4.64560082790782   -0.85455286870692   -0.47621120586238
H         4.68077432309758    0.22154322089757   -0.41506528524457
C         5.24914940013342   -1.50835518499896   -1.51497045251488
H         5.76702783028655   -0.94631599716913   -2.27758100358470
C         5.20095648654830   -2.90674980820060   -1.60167432403940
H         5.68348337396413   -3.40674473045485   -2.42803715744772
C         4.54497374741199   -3.62904477313414   -0.64403327998924
H         4.49918463588618   -4.70694038367781   -0.70127245888234
C         3.90857725703481   -2.98671768564832    0.43706038649624
C         3.22793666599173   -3.71565296492054    1.43593505917851
H         3.21118423550971   -4.79372355008943    1.37431594736817
C         2.58685204470366   -3.07686623141340    2.45439433499534
H         2.04497706031341   -3.61432100695960    3.21701868284746
C         0.98095801762820    1.18161321816587    1.00195145192997
C         2.29483983274877    1.54622043951648    0.83030084741637
C         2.65476981751155    2.52265807117405   -0.12855591470743
C         3.97981676761909    2.96697420807353   -0.30230851169662
H         4.75134485088812    2.55181401666674    0.32873251710696
C         4.28329045932646    3.91416508206284   -1.24035620513203
H         5.30275411042673    4.24877268484918   -1.36193758333529
C         3.27597565675126    4.46162487874823   -2.04778252753352
H         3.53210406235095    5.20983671040844   -2.78291697674891
C         1.97999574953817    4.05235263566291   -1.90029517865275
H         1.19693815576042    4.47349896385083   -2.51371724343561
C         1.63162967902372    3.07900340106328   -0.94177197162838
C         0.29867521669593    2.65281414488606   -0.76389965781981
H        -0.47308511560480    3.08469565336328   -1.38297825155028
C        -0.02337593677258    1.72971717527269    0.18728720979003
H        -1.04206832434359    1.41830016932950    0.35482793344808
C        -0.93431124701078    0.60722184237715    5.27653140740663
H        -0.29144011161560    1.44641301277506    5.57262911397855
H        -1.15080416011412   -0.00803461959513    6.15744687129333
C        -2.24266538758539    1.13704465198271    4.68696486694119
H        -2.83104926200092    1.64520069384484    5.45189629481947
H        -2.01022255336362    1.83925545554168    3.87469092383060
C        -2.36940296687151   -0.64934729584829    3.20978488404567
H        -2.11504127057576    0.01049659488711    2.36624785037414
H        -3.05777522314979   -1.42691575718788    2.87230509566424
C        -1.08275807611273   -1.26244478925543    3.76814147478710
H        -0.54244968648113   -1.79544948091712    2.98435695109062
H        -1.33327517935951   -1.96059805410698    4.57560049207425

