35
CSD_code = WESZEA | q = 0 | S = 0 | Stoichiometry = C12H14N4O4Pd | MND = 4
Pd        4.15786378632844    7.59434880948378    5.28609060265489
N         5.84182922414914    6.82210613076679    5.81537674444273
N         7.05405519170424    5.48018257609633    7.31554339973890
O         3.81888133149452    5.96627690787091    4.02471291975597
O         2.86555683453343    5.38537906542354    5.92342648175261
C         5.94338340672951    6.03947105555882    6.89513962291036
H         5.03168776110415    5.84642413804385    7.45964987805677
C         8.16128395319491    5.70081147254276    6.62070735760666
H         9.05864676282633    5.22720571419931    6.99481761363063
C         8.16091267683177    6.49396413674807    5.47993292164618
H         9.05894565255844    6.67325829491756    4.91218924080850
C         6.94939236067915    7.05026603069754    5.10291968010696
H         6.84269006474957    7.69944096955030    4.23494631719083
C         3.16483259748659    5.14836843920530    4.74781327639442
C         2.76861781125100    3.83449897821621    4.09674113382845
H         1.78902220504797    3.52948081061484    4.45332210840245
H         3.49247670694499    3.07452420029288    4.38415377081517
H         2.77071685463290    3.93690678058760    3.01576229180596
N         2.47273313612858    8.36290994271157    4.75587644347001
N         1.24089369398544    9.64306482163660    3.21845437686486
O         4.49402043322437    9.22708048380155    6.54208385926665
O         5.41346595308536    9.81830504363907    4.62965650117756
C         2.35678855729787    9.09955349033344    3.64584291251695
H         3.26084469577561    9.26759478017565    3.06147028574532
C         0.14371500894878    9.45397443152884    3.93811034211694
H        -0.75884752023545    9.91159939838682    3.55649301861553
C         0.15972194445653    8.71054160758556    5.11191841236822
H        -0.73019092047014    8.55727143262087    5.69993169244469
C         1.37581183053659    8.16797435063202    5.49414300901403
H         1.49429107761797    7.55503914567235    6.38672469035506
C         5.12216268767592   10.05499068926734    5.80731127400758
C         5.49745097414677   11.38051026513239    6.44699021770986
H         6.46491250921990   11.70573670474240    6.07559152217970
H         4.75275652821036   12.12243575957425    6.16581111652187
H         5.51207422815135   11.28350314174059    7.52834496407468

