99
CSD_code = WETDUW | q = 1 | S = 0 | Stoichiometry = C41H55NPPd(1+) | MND = 4
Pd        0.11061083407583    3.99395599805977    3.94511590716133
P        -0.00898471260021    1.82069248742160    4.67248155422663
C        -0.66255363257701    0.78228037691911    3.22214017854249
C         0.13298922132915    1.31192685582367    2.02675509138797
H        -0.28738409196917    0.93928516826305    1.09463955306402
H         1.16747439033745    0.98296460775219    2.08390101111648
H         0.09966751558976    2.41268038230647    1.99797858780554
C        -0.45109398265945   -0.72344701421270    3.34425300341709
H        -0.84643708620684   -1.20196726124940    2.44922538174657
H        -0.98259390072098   -1.13772023575636    4.19679099994238
H         0.60281139123473   -0.97923933193262    3.41522216421983
C        -2.14462789167887    1.07000859419317    2.98153383546358
H        -2.35362809320880    2.13525312739192    3.05848481767580
H        -2.77919675167120    0.53382505107495    3.67896049814570
H        -2.41252341698180    0.74490260201701    1.97762582160420
C        -0.81128386735248    1.36545269402170    6.33989855759888
C        -2.33090499113361    1.48375105378100    6.19171549619504
H        -2.75060626575428    0.56586474204308    5.78992247923346
H        -2.61236555112434    2.31260672304649    5.54723392236503
H        -2.78084531580396    1.64644342045988    7.16944899867418
C        -0.49876552852121   -0.00269911317404    6.94399931356193
H        -1.12966356498320   -0.12803859531834    7.82351339759442
H         0.53367583711102   -0.07554514749925    7.27374581590049
H        -0.72379038111031   -0.82098305397544    6.26616472229027
C        -0.29844062822269    2.43469667198916    7.30756456899839
H        -0.85015890397126    2.38892439136510    8.24447997167415
H        -0.42183514099957    3.42889841522792    6.87809040476476
H         0.75440123702147    2.27065261066963    7.53470712766076
C         1.76103894400962    1.36643567156205    4.83251353775349
C         2.14136087395915    0.10227505436820    5.28705462214596
H         1.39818394151419   -0.66360107564329    5.41908468765082
C         3.46052559366104   -0.20127902059816    5.56254885817965
H         3.72258868749170   -1.18883566172680    5.90920151358755
C         4.43504488486832    0.77003029482498    5.41118430102827
H         5.46254146298904    0.56033305285627    5.66408836272301
C         4.08377615049513    2.00565146817894    4.90565054576959
H         4.84178066192915    2.76061833392551    4.75369145908903
C         2.76366379333187    2.31323843432795    4.57498889660371
C         2.59934515446019    3.63944074680338    3.90115665645329
C         3.04887593511416    3.76046577108894    2.56318746791296
C         3.44236101539551    2.55884841932385    1.73116607867270
H         3.11086468201355    1.65047406021047    2.24303741494703
C         4.96854761742822    2.48456746878492    1.60606666864131
H         5.36552923406075    3.38952188506477    1.15303234476055
H         5.24129812564814    1.63927750541291    0.97913625442395
H         5.43672064592763    2.35210708393906    2.57740654678268
C         2.82192129435007    2.59374690084167    0.33104766831749
H         1.76139235301757    2.82800288142173    0.37075319125767
H         2.94391240511071    1.62572772218606   -0.14816926323991
H         3.31398926859615    3.33443986519431   -0.29365506547369
C         3.27868747159942    5.02287251451408    2.03180010932892
H         3.64845640213553    5.10126455700788    1.02050305085295
C         3.13188163788626    6.18498527461610    2.77915490867950
C         3.50789052673076    7.52684871147501    2.19753651009957
H         3.86918536732308    7.36654997320848    1.17572127578832
C         4.64751634731405    8.14893631444268    3.00870607148383
H         5.00226125579607    9.05231081828445    2.51958672257499
H         5.47941815262802    7.45321469280209    3.09187590258091
H         4.31637114041123    8.41274587955311    4.00993187591166
C         2.31316371975567    8.48363889514430    2.13432652636519
H         1.55560809313169    8.12620200862553    1.43714917340700
H         2.64389302619217    9.45897744503898    1.78687084061592
H         1.85990171723218    8.61319442762682    3.11531346655734
C         2.70262708308683    6.06266750236658    4.09480109019250
H         2.62450433716876    6.94745284252662    4.70803294881698
C         2.43526863249958    4.82082141533123    4.66978382220071
C         2.18055794558444    4.76016097686329    6.16398745103467
H         1.88855867016240    3.73604517040858    6.42226511174696
C         1.05219772875843    5.71715953470338    6.57290018460214
H         1.38767538896775    6.75124794143544    6.54410668902758
H         0.73160220742951    5.50489554571800    7.59019400312836
H         0.19021169704819    5.61181956038857    5.89295407943496
C         3.46668756673409    5.08626307977046    6.92723548291999
H         4.24559012065125    4.36487750949161    6.69217249033935
H         3.28021884319959    5.05240236251849    7.99772480139165
H         3.83034993005349    6.07871558970879    6.67266798194201
N         0.02016659655067    5.77108332162639    2.62742902077519
H        -0.65126343465220    6.44633805504557    2.99845882452244
H         0.90530743135278    6.23976950401799    2.42878577451441
C        -1.86374318023930    4.41350541377827    4.03120668236756
C        -2.53766047941083    4.68527743052305    5.20730774447941
H        -2.05398961655246    4.59516850993598    6.17223572794215
C        -3.87168820700933    5.07670317051495    5.17449518240157
H        -4.38766081777485    5.27844686143779    6.10036787999912
C        -4.53023024231655    5.19695882512898    3.96492167814969
H        -5.56894062002867    5.48634488068701    3.93873866844365
C        -3.84722983868719    4.97345723848013    2.78428385983185
H        -4.33651825985676    5.11959869034465    1.83307537086817
C        -2.50422006945147    4.59984005372792    2.80301955038882
C        -1.75456532215776    4.49681530979460    1.53628116827178
C        -0.49094698356301    5.10952961602649    1.46754895401796
C         0.22648091910276    5.08510698564169    0.27976561873476
H         1.18535064297081    5.58002679859862    0.22352405057776
C        -0.28614378398953    4.42950379637640   -0.82819846747144
H         0.28285896317257    4.40854567348087   -1.74433811789912
C        -1.52596121574215    3.81764357396081   -0.76321813015792
H        -1.92478603277531    3.31277051809863   -1.62869651571965
C        -2.25944385930566    3.86011090807682    0.41017196749742
H        -3.22676705193493    3.38437123807082    0.46416500642371

