61
CSD_code = WETDEH | q = 0 | S = 0 | Stoichiometry = C28H16N10O6Zn | MND = 6
Zn        5.07541040281518    8.29075029680597    5.49139608382684
N         3.47713381105019    9.67478222941141    7.33517006082002
N         3.55668789651210   11.57891203994030    9.33156013307935
N         5.07220412474201    7.40065915343613    7.93443142209306
N         5.59356126550933    6.26729567763682    5.41862380679525
N         6.79822565082530    3.77366731748340    5.35556170394849
N         5.56841206006891   14.93996210977516    3.35195010578679
N         5.96466202426959   16.69708609877431    1.24485943831904
N         5.39312246920760   12.65961929836959    0.60115565291606
N         5.11775942037211    9.67166133290003   -1.35009448438107
N         5.03679344062352   11.57071098433737   -3.36689130466451
O         2.72444149556956    5.39924298538044   11.84303094945493
O         2.94206127179805    3.70113857518391   10.36776724614456
O         5.07085670832882    8.61398127653430    3.52610567164253
O         5.39419036402481   10.20954173306933    4.96251393155276
C         3.17831317347311   10.95522140942923    7.07354598459748
H         2.90830433403760   11.18159399341685    6.05406809309409
C         3.23339635612386   11.89230398749697    8.08478565842392
H         3.00308943552214   12.92919936156456    7.89066963593259
C         3.86757602295237   10.32550487487857    9.57637974202599
H         4.15111620752915   10.07786408573319   10.58955567851547
C         3.86618722013070    9.33423447377463    8.59746779094074
C         4.20325639543794    7.93376834678553    8.82182514387465
C         3.64194013501073    7.13940266157989    9.80748024790918
H         3.00104563922094    7.55902747564831   10.56762268408332
C         3.88630541054749    5.77358600348492    9.79607951901795
C         4.55086130549519    5.23112192318707    8.70925314405142
H         4.56392942012692    4.15764783034981    8.59714708254582
C         5.16221155828126    6.05850499172288    7.77499288912638
C         5.75559818021468    5.55022670355692    6.54989301612831
C         6.37643041099150    4.29214370452842    6.48533486939033
H         6.54366680893400    3.70924183708484    7.37969470956474
C         6.59846493296431    4.47551534216374    4.24586325052233
H         6.93866660887994    4.02854977575149    3.32390174063737
C         5.99907142299428    5.72543380256663    4.27420152333258
H         5.83926811252814    6.31394183992527    3.38352847576018
C         3.07911749577260    4.81462616331668   10.84204039655984
C         5.70645287544088   16.23814121538105    3.55259305621859
H         5.65657670671109   16.57055398055603    4.58061677451343
C         5.90137273215536   17.12277744530856    2.49823400449496
H         6.00915410213232   18.18725009843406    2.65136567348395
C         5.83305948584836   15.39992336515125    1.03903076076225
H         5.89153293628874   15.05225231273385    0.01851377619236
C         5.62899354848498   14.50316303667616    2.09335277449100
C         5.48154470811412   13.06119792154275    1.86348860286761
C         5.44521734613205   12.17259091366777    2.93967525504341
H         5.52684976045671   12.53467029560746    3.95130799398751
C         5.30769312204748   10.81741089552341    2.66666768763900
C         5.21198916169390   10.39681681636051    1.34667506146302
H         5.10126649470512    9.35498554239643    1.09599136651162
C         5.26195883202039   11.36454659734994    0.34113418081106
C         5.16462201667783   10.97475586375437   -1.07038118101582
C         5.11735782490033   11.92353856722001   -2.09726917453211
H         5.14353858151113   12.98055652648431   -1.87853388232075
C         4.99660562508631   10.27379477788392   -3.63583110690568
H         4.93421161325851    9.99990546026310   -4.67952138966960
C         5.03218555348571    9.32413919231803   -2.62105778368437
H         4.99346538436170    8.26260575523643   -2.82446271582143
C         5.25865906012086    9.82977304163921    3.77829089396456
O         5.83408036354688    8.21314721558635    7.24391478561663
O         3.35727317192804    8.77863146595488    6.41513289257450

