107
CSD_code = WETHEJ | q = 0 | S = 0 | Stoichiometry = C45H55ClN4SiTi | MND = 8
Ti        6.86110812618978    6.86905083202231    5.93622280057198
Cl        5.47757663727264    8.30151661578187    6.84474914173018
Si        8.54619515875775    8.57602305316040    4.65091421074582
N         7.11573044787135    8.48745812382391    2.16841877539763
N         7.08349048493635    7.64412626884811    4.25686022744701
N         8.47516725065099    7.74914779686042    6.22559326898721
N        10.28500901506436    8.91977643917651    6.87038786353489
C         6.61603060448649    8.84045607638839    0.92915100682023
C         7.30142136459492    8.40145381030601   -0.21663004891750
C         6.87982964769112    8.82625136997401   -1.46403544643670
H         7.39962086452230    8.48931769620692   -2.34877410924290
C         5.80027649295946    9.68073822535769   -1.59450341538696
H         5.47680775203855   10.00207801228799   -2.57368750479861
C         5.14684782752543   10.13218317450631   -0.46409874337956
H         4.31644788289381   10.81416087746680   -0.57287881319785
C         5.53502216166460    9.72958056499096    0.80453409431836
C         8.49705519970112    7.48720810456331   -0.06791459023184
H         8.55686054683927    7.19121216577881    0.98520319199935
C         9.77661323733983    8.24774006338219   -0.42522800477992
H         9.86150410269771    9.14505279659308    0.18357326258037
H         9.76430532722580    8.54515392144501   -1.47136166993811
H        10.65166643281853    7.62387675719055   -0.25341155208008
C         8.37262587996041    6.22303864616108   -0.92037325490135
H         7.44768143310272    5.69373357717859   -0.69935797543057
H         9.20688874091693    5.55366610472134   -0.71901794043832
H         8.38002978196474    6.46375766669507   -1.98044836732639
C         4.83463302415587   10.29274296540800    2.02049773482016
H         5.25227346732324    9.82482436933400    2.91825620111009
C         5.09037358712092   11.79912798350012    2.12475924275952
H         4.63799492133600   12.19571141092279    3.03129002158704
H         4.66859040016660   12.32320173731031    1.27037283183822
H         6.15942794697350   11.99806311862523    2.15426155264820
C         3.33263357925453   10.00273335449804    1.98628711085890
H         2.87041536500504   10.31371554346495    2.92091872352967
H         3.15165496668628    8.93889780221977    1.84793794942152
H         2.85175799762062   10.54061899700573    1.17293297565506
C         6.51516877869276    7.77480104945173    3.05037896278216
C         5.23380361938969    7.04817289934706    2.81788489670663
C         4.21570346819862    7.11009623807836    3.76756657355911
H         4.34154631250612    7.72560593104440    4.65317365936513
C         3.02298502994513    6.44136372044775    3.55085523717961
H         2.23111846924911    6.50526385180040    4.28326456400946
C         2.83804303870885    5.70275686893743    2.39310172157990
H         1.90738956215451    5.18077356213928    2.22688866144721
C         3.84480886676672    5.64515020921720    1.44357252534642
H         3.70030299995055    5.07778433059809    0.53605154427915
C         5.03612823319574    6.31756901511736    1.65075442212339
H         5.81969336281710    6.27647800917510    0.91000041098172
C         8.14895191103182   10.43712278418835    4.79783413608881
H         8.98381479903800   10.97162491669798    5.23709883701396
H         7.27398068367239   10.59153299374324    5.42889569757682
H         7.94340561138644   10.86072240253431    3.82083392504133
C        10.07199437868706    8.08787769575911    3.62190497964997
H        10.96400448234572    8.53415372932775    4.04352186349868
H         9.95979419745045    8.44041861255140    2.60427071504800
H        10.20712664944882    7.00901782285706    3.59749031081413
C         9.36216361912545    8.08107109779843    7.17324511147999
C         9.23657166859135    7.41045383567837    8.49907456010593
C        10.35674567944275    6.86035034041902    9.11361701961528
H        11.31611670437104    6.92342186297093    8.62358253164976
C        10.24018738206925    6.23349648477077   10.34145744769425
H        11.11420031204130    5.80683719583690   10.81095274967814
C         9.00841787318753    6.15716915180070   10.97024245458767
H         8.92052263678920    5.67140753055669   11.93071986536540
C         7.89158602254067    6.71584619425912   10.36981974986286
H         6.93385764940911    6.67604014142223   10.86855648221180
C         8.00039216804501    7.33822517551472    9.13781684616754
H         7.13340646575298    7.81588395938227    8.69143175193202
C        11.18033090044885    9.49722561217769    7.75045591660779
C        12.55293664840915    9.26696931468416    7.55667006527584
C        13.47114864955564    9.92387825804090    8.35633222939818
H        14.52742367407394    9.74972725453416    8.21414920304110
C        13.05410477616135   10.80546589888652    9.33687325604402
H        13.77945072998511   11.30973883759944    9.95839744720622
C        11.70479635710921   11.04758226134174    9.50794641522055
H        11.38779510559567   11.75045908385643   10.26423360475317
C        10.75109571815466   10.40978673731100    8.72948579885995
C        13.00343170589568    8.32167402493552    6.46555270351056
H        12.11301816423343    7.80893593651304    6.08503310285707
C        13.98849091555088    7.26811721851677    6.97507204347394
H        14.20237083523329    6.54647315436958    6.18890228034062
H        13.57866610448539    6.73353287515998    7.82993069435339
H        14.92713541474009    7.72432997669952    7.27911070033839
C        13.62284916174276    9.12122483845708    5.31634956021156
H        12.91392331950335    9.86055512568183    4.95044310973222
H        13.89642588929775    8.46086280356957    4.49554251948379
H        14.51624862377575    9.64210436589363    5.65351187858018
C         9.28775215190030   10.74651662352336    8.90822330138656
H         8.69322535913818   10.11586594953793    8.23846438347154
C         8.82637942421161   10.48599726470759   10.34386554224127
H         9.07406727155123    9.47094566676585   10.64717034779500
H         7.74890376806975   10.61694711363402   10.41978786025327
H         9.30313133030392   11.17597700834927   11.03583909644536
C         9.02824287755586   12.20397061059438    8.51614925083770
H         9.34832072852330   12.38091771477628    7.49183607883607
H         9.57297888741943   12.88325340854918    9.16762452843362
H         7.96653702869703   12.42933316879498    8.59189039470081
C         7.62657125124571    4.72575700737664    5.51686440088017
H         8.49554121190668    4.44931720458248    4.93039678097671
C         7.59730539427245    4.89836681074295    6.92046333791872
H         8.44020824915030    4.77459121339906    7.58942443731324
C         6.25617033080953    5.10439357375031    7.30505794653167
H         5.88860154001238    5.17170403136862    8.32236399420841
C         5.45244699629236    5.04389231892818    6.14242085263913
H         4.36892795178663    5.05881372867099    6.12323700599486
C         6.29712604438827    4.79968366597936    5.04011686587396
H         5.97691921553932    4.58732670098660    4.02765009736771

