105
CSD_code = WETKEN | q = 0 | S = 0 | Stoichiometry = C54H44N4PtSi2 | MND = 4
Pt       11.27919452101948    9.40633321234446   11.47900164351945
Si        9.19768452773917   13.45123156388071   18.76128744833142
Si       13.46747326046529   10.00875039740544   19.75821677945347
N        11.29218439442719    9.98732144291909   13.41054331742533
N        12.47935605334011    7.85947188734449   11.93228248090236
N        11.26389158938715    8.82523102463368    9.55307045491076
N        10.07994484961644   10.95182272811617   11.01852451128726
C        10.63777366437268   11.06405142904753   13.94001206494525
C        10.87341524359316   11.13682847138060   15.35733202514194
C        11.73517440938606   10.09853749998143   15.66412688349388
C        11.95553294030494    9.37799596279347   14.43847044646432
C        12.72406113273584    8.22298681767786   14.35460219820500
C        12.96222272785823    7.53742088506314   13.16771086947675
C        13.77168337954287    6.35565387326300   13.08342093299166
H        14.26341246578801    5.88956222882960   13.91416256020418
C        13.78307027714212    5.97942006778782   11.78503610135672
H        14.29672064543501    5.15056620859416   11.33951320897872
C        12.96253717933981    6.91579081665584   11.07182804961130
C        12.72439903703145    6.85086842674995    9.70292251560090
C        11.92432749436376    7.75818916977950    9.01510476200201
C        11.65296466171260    7.67411039137809    7.60911056450397
H        12.03946527142136    6.91873635457645    6.95380248618684
C        10.83332067777462    8.70550347003803    7.30454686238666
H        10.42986582190232    8.97143399402695    6.34750707759706
C        10.58886637990763    9.41829646659193    8.52502645675434
C         9.79997667959284   10.56159102190530    8.60688010283964
C         9.58464382381369   11.26738483485980    9.78589800248518
C         8.77508487375336   12.44882629887825    9.87284839055043
H         8.25658573733157   12.89859706281736    9.04930164054399
C         8.80351861548693   12.85098295198695   11.16318824158563
H         8.32348132948002   13.70188478985317   11.60447965066466
C         9.61348268558606   11.90543835675715   11.87651594540839
C         9.86565365821235   11.98525510097928   13.24227317696548
C        13.28179982672005    7.64207036019969   15.59751522854494
C        12.43697332794769    6.98162870801495   16.48254028311788
H        11.37829775333401    6.93736185825230   16.27328206942390
C        12.94911402939408    6.37798520977380   17.61512581793503
H        12.28656948620325    5.86066309629869   18.29321395100073
C        14.30787622888021    6.42767934916886   17.87418829928636
H        14.70816564570497    5.94372100921157   18.75338780195854
C        15.15314665839462    7.08961806501896   16.99975952860961
H        16.21420082838049    7.13016092307992   17.19835137712360
C        14.64436951307815    7.69234588116485   15.86441373222655
H        15.30146195071970    8.20519640876482   15.17731396520145
C        13.35098665181451    5.75212247681304    8.93537427028470
C        12.96909773545720    4.43237717994703    9.15264706679309
H        12.20402047095585    4.21657189819498    9.88428896173011
C        13.55447999762711    3.40758162501330    8.43135109312184
H        13.24788685418370    2.38631815253806    8.60452857296524
C        14.53050805259811    3.68827054823516    7.48985110634420
H        14.98835346999635    2.88711849565059    6.92874694063097
C        14.91734940993257    4.99973292289415    7.27008617864395
H        15.67960510521877    5.22337223185052    6.53802872086844
C        14.32977311159312    6.02699139731529    7.98599286150278
H        14.63248174403119    7.05064648283940    7.81952561802955
C         9.16025686090273   11.05770451926115    7.36831247507092
C         8.15887011116824   10.31736755459369    6.74878384572679
H         7.84808731508283    9.37905536566643    7.18490567433063
C         7.55957147317998   10.78262098321647    5.59229278374070
H         6.77958427460366   10.20238633954894    5.12122217533019
C         7.95721207454922   11.98824189231895    5.03891779179976
H         7.49022390413579   12.34947077872966    4.13462714693324
C         8.95570412855594   12.72907034038267    5.64884400361909
H         9.27086207699641   13.66886823445990    5.21939567649017
C         9.55280578827250   12.26899376451610    6.80856755588291
H        10.33513815372582   12.84269120350955    7.28401097175945
C         9.31740602090566   13.15493683528380   13.96670295997240
C         7.95779046263867   13.25975179057030   14.23304293733394
H         7.29750884640689   12.45341370529327   13.94884017222456
C         7.45611773003650   14.38758998951744   14.85546918642406
H         6.39750587580209   14.46297058985558   15.05668304992817
C         8.30554299559797   15.42163499712658   15.21099920751400
H         7.91046962273967   16.31018268385545   15.68196480759068
C         9.66151123105469   15.32032118625125   14.95243973124716
H        10.32714638388489   16.12528210054315   15.22690296776396
C        10.16664703638080   14.19298521289603   14.33318919519572
H        11.22303440731821   14.11461763876387   14.12234663653871
C        10.31272440279041   11.98776422980447   16.31368678989384
C         9.85179019685980   12.58966474704043   17.25947896354404
C         7.40993104517346   14.04716792105812   18.47435298453831
H         6.79324981905657   13.24700929362175   18.07633448141436
H         7.37696937329853   14.86800442347520   17.76618723569794
H         6.95236981671879   14.38715887292523   19.39946042067982
C        10.34001468527031   14.93093496965749   19.13886828347950
H        10.34192663161618   15.63696471393025   18.31391202172546
H        11.36432399220700   14.60505420883399   19.29222560984141
H        10.02537289345893   15.46510973505971   20.03097889095564
C         9.21788715272116   12.18305831145392   20.18812557797914
H         8.44185584948880   11.43550465642491   20.05295074747751
H         9.05459552812234   12.65716334898948   21.15195893701070
H        10.16747748811497   11.65854253461047   20.23174991368312
C        12.30932986188883    9.91215909405781   16.92467522197992
C        12.78293716806810    9.92629467185800   18.04041068964807
C        13.39773434035277   11.83417514207613   20.31119724016110
H        14.09670214749616   12.43843265961079   19.74052472378507
H        13.64736967928824   11.94582163517951   21.36272584196508
H        12.40815330626644   12.25342104458630   20.15837021799078
C        12.38599826081757    8.91021127806220   20.88097338570235
H        11.34993419296669    9.23476729353975   20.86507521878788
H        12.72414212860286    8.93355192314100   21.91308192542042
H        12.40989645274089    7.87702477530337   20.54799488607666
C        15.27771990874095    9.41199660105540   19.78722099482934
H        15.86280312997629    9.90926814619078   19.01952134502872
H        15.34329598413806    8.34437819923352   19.60769052613455
H        15.74770992875568    9.61792837391931   20.74504467402480

