91
CSD_code = WETKOY | q = 0 | S = 0 | Stoichiometry = C39H48N2NiO | MND = 7
C         9.10867111881612   12.72068343557502    1.80763486681942
C         9.06348984483232   11.95460850377521   -0.41579312728030
H         8.18177380810340   11.52902657272270   -0.90256314334765
H         9.95239403709598   11.53274121744256   -0.89740685065138
C         8.95863409511683   10.31351890396596    1.49426932848770
C         7.69206053909285    9.72859565264128    1.58959831330720
C         7.59985016371294    8.43742615959047    2.09134989298369
H         6.63383128163066    7.96248768470472    2.17256230161641
C         8.72703990546787    7.75188089485277    2.49962260907886
H         8.63462922356820    6.75358024872834    2.90239781335565
C         9.97279730609860    8.33930243449307    2.39303308503928
H        10.84492312970155    7.79268236449947    2.71646232724031
C        10.11087432266179    9.62010310389785    1.87718686472350
C         6.44650664718438   10.45107662548453    1.12960570986833
H         6.70859619193147   11.48171090318039    0.87673388488607
C         5.88581247185776    9.76356218081976   -0.12026060352179
H         6.64684178285537    9.67695962156245   -0.89452458457381
H         5.53705228513877    8.76211507056255    0.12042866881706
H         5.04756714531937   10.33100376059597   -0.51981499448371
C         5.38071771393808   10.52305103218552    2.22228828372043
H         5.75105865761296   11.09027381921192    3.06949581990632
H         4.49566005317085   11.02623777267991    1.83836703826347
H         5.08727253507746    9.53344965952253    2.56197446038672
C        11.47033120247794   10.27222998895434    1.77706573168001
H        11.40226500085857   11.11287615937486    1.07981800223520
C        12.54763272987756    9.31891998461301    1.25820564271040
H        13.45914347881621    9.87417239393524    1.04620275446349
H        12.78689552193292    8.55341046735047    1.99153910373711
H        12.22016687789105    8.83024021025268    0.34291111929602
C        11.84909589021255   10.83453463363950    3.14845781865574
H        11.05248930752186   11.55781632961215    3.47368234604790
H        11.91282183071120   10.03602909461449    3.88466655131452
H        12.80687092308322   11.34857646924594    3.10186925595507
C         9.78453393399858   12.72189828664555    5.67977317194932
H        10.76402036726083   12.72161374527594    6.15415413386282
C         9.09289844583962   13.93305621867413    5.46050345628254
H         9.58217644914748   14.88104258842380    5.65552517895475
C         7.73311333393414   13.92954798167440    5.16326244098543
H         7.19655272549308   14.86070067639467    5.04974259397152
C         7.04921662660364   12.72324838347594    5.05533466067526
C         4.80350896094186   12.71876123728576    5.80355986435133
C         5.17745698752193   12.71593939117942    7.14243184009394
H         6.22484837095516   12.71773550005111    7.40830072732287
C         4.20398738952161   12.71107422593545    8.12554029074884
H         4.50253188808782   12.70900978508297    9.16386001850282
C         2.86197640276595   12.70893174412746    7.79021693062185
H         2.10859973645213   12.70518117140939    8.56335071707419
C         2.49139744732162   12.71171760050304    6.45453416403815
H         1.44579680384521   12.71011704059776    6.18324812940006
C         3.45154945200720   12.71658047068659    5.46395014145704
H         3.18232673705408   12.71888983351472    4.41922404333946
N         9.07573433000638   11.64453364680781    1.01384439784023
O         5.68692154582176   12.72424260424534    4.76831421356899
Ni        9.80268572991173   12.72117900415662    3.71923332016155
C         9.06403155059499   13.48479496847462   -0.41647756980395
H         8.18260947142639   13.91056817572764   -0.90361036286675
H         9.95321849969497   13.90560593186997   -0.89848995086612
C         8.96042392383628   15.12768798342693    1.49208377661137
C         7.69429595523963   15.71366345847011    1.58687522741405
C         7.60308520988487   17.00538115371649    2.08740437627450
H         6.63743370525815   17.48114045802999    2.16816352667323
C         8.73079793104137   17.69044337070848    2.49504204384475
H         8.63915536425605   18.68920236071203    2.89686241459840
C         9.97610847578284   17.10198013078188    2.38897093446515
H        10.84865226441920   17.64825145271452    2.71186261115085
C        10.11320471177781   15.82059857461698    1.87430172759671
C         6.44816512263196   14.99172866231211    1.12758049462971
H         6.70944092957420   13.96065446006200    0.87566114108734
C         5.88798105486096   15.67853281266923   -0.12291145227047
H         6.64907129785521   15.76393491968461   -0.89725019870410
H         5.53989575555154   16.68042709464212    0.11689857403296
H         5.04934570512294   15.11131837621254   -0.52197370402637
C         5.38229662053031   14.92164508898149    2.22031193347984
H         5.75205075073130   14.35481783681361    3.06804779266562
H         4.49677809341967   14.41895588397979    1.83678581751969
H         5.08975116870014   15.91182005766389    2.55912318171366
C        11.47218008080822   15.16738762256788    1.77464364528558
H        11.40346785224430   14.32626944452131    1.07803131773938
C        12.55017209679149   16.11950171605051    1.25502223587408
H        13.46126242415896   15.56340509340325    1.04341376288157
H        12.79003178886945   16.88538082939309    1.98777191277173
H        12.22304470724612   16.60773745341766    0.33937050817814
C        11.85062266303670   14.60583317984498    3.14642990168588
H        11.05359391879459   13.88326033966715    3.47217846014364
H        11.91484379909137   15.40483439054994    3.88205373317008
H        12.80809052585148   14.09118485785256    3.10019523868520
N         9.07651915343413   13.79614220064406    1.01288331343422
C         9.09121325440817   11.51132544792517    5.46266266594750
H         9.57930546880597   10.56300606785870    5.65900307862537
C         7.73144966112758   11.51616697197633    5.16550718675464
H         7.19360835527700   10.58552668162377    5.05369997765933

