67
CSD_code = WETLUD | q = 0 | S = 0 | Stoichiometry = C28H34Cl2NPPd | MND = 4
Pd        7.48790169655525    1.86100781045584   21.65358306291054
Cl        9.73434034336406    2.15149963567037   21.71354226327158
Cl        7.04798023851912    4.09958143079566   21.93574586999894
P         5.27906803547136    1.49780404423826   21.62519814804498
N         7.54909934581475   -0.69934873849203   20.32068192236193
C         7.50993776867246   -0.07685491858393   21.47916574130785
C         7.11755470630940   -0.76599985930883   22.78014489299620
C         5.62931862397966   -1.08297115142384   22.74983776426555
C         5.12905791743581   -2.27559268342210   23.25871822116174
H         5.80797418431768   -3.02640260427889   23.63266500896534
C         3.76763157351944   -2.52021458440476   23.30778588118630
H         3.40681269662804   -3.45732317513758   23.70461789555128
C         2.87329475218396   -1.55690852529367   22.87565399071925
H         1.80970137776513   -1.73153331498922   22.93700371493969
C         3.35261061547793   -0.35945893391553   22.37900212288743
H         2.65927093849478    0.41668384587255   22.08453479999368
C         4.72084202297878   -0.11757069407790   22.28500170614392
C         6.98636694607624   -2.04079487075426   20.10256330737329
H         6.60513382825391   -2.35173553667736   21.07393752199686
C         5.75574090037569   -2.03336258402752   19.18728208573353
H         5.15973664390953   -1.14077577013643   19.35908185851001
H         5.14185175440006   -2.89912447772264   19.42773710919456
H         6.01339561147525   -2.09085071817148   18.13615426993288
C         8.00700896858296   -3.08027781007512   19.64415560470899
H         8.32568065579509   -2.91154514945642   18.62050599194287
H         7.54686617520315   -4.06529252284488   19.69183755510365
H         8.88134166618336   -3.07762641027834   20.28976560277997
C         8.27184617445018    0.01799730039046   19.24082974979423
H         8.17997511840593    1.09628740896557   19.48693281778914
C         7.73370464610234   -0.16115892602836   17.82845737737450
H         7.90815530974004   -1.16013714979751   17.43981050919066
H         8.26599014073107    0.53651553061430   17.18577102515775
H         6.67614317115756    0.07804961880214   17.77151780128777
C         9.76429248024055   -0.31330966012013   19.31361543675009
H        10.13777690296105   -0.08053865476332   20.30867304908707
H        10.29948188806203    0.31475336289985   18.60690777253933
H         9.97038485973662   -1.35206612550143   19.07608764678921
C         7.33647547065076    0.20628182998698   23.97248182746082
H         6.65125257069166    1.06705418257442   23.94652089826449
H         8.37145413324986    0.57066053785644   23.96726280597787
H         7.15865793579517   -0.32298237963690   24.90830556817607
C         8.06198556711171   -1.95003623465914   23.06693230728307
H         7.98409959632442   -2.24653373738450   24.11056685504792
H         9.08237672921029   -1.61268344751931   22.89284825109626
H         7.88508431292622   -2.82773093450746   22.45477540008661
C         4.77927169519770    1.56096181299820   19.87100457807535
C         3.69911385492434    0.88525648956903   19.31281924001084
H         3.08680809097933    0.23458962353483   19.91986327242414
C         3.41051444548968    1.03449838976677   17.96644979863663
H         2.57397460678729    0.50182478774440   17.53835926934268
C         4.18513165489356    1.86341070977563   17.17198507743560
H         3.95069697670035    1.97870327035936   16.12430991912528
C         5.26108256769229    2.54221030930094   17.72271806493038
H         5.86651628836244    3.18940817647063   17.10620074031003
C         5.56404571882654    2.38712613876914   19.06359026530327
H         6.40917303316718    2.92480000585075   19.50298151188788
C         4.13276110875996    2.65658941168847   22.42206413156374
C         3.84184132947462    2.50737088857676   23.77594356797264
H         4.22547183017767    1.65366172145709   24.32070008137865
C         3.06170554132757    3.44659934018978   24.42283973791552
H         2.83894006460239    3.32778224425424   25.47314394741759
C         2.57844109774185    4.54409888790241   23.72901801525402
H         1.97589257846445    5.28123798768360   24.23863328412710
C         2.87904751668945    4.70254997428665   22.38632259049028
H         2.51406670733231    5.56486047992174   21.84846282879530
C         3.65864914325521    3.76719031926945   21.73183415346100
H         3.91119715386407    3.90223477490515   20.68995491100130

