54
CSD_code = WETLOX | q = 0 | S = 0 | Stoichiometry = C13H33Cl2N4PPd | MND = 4
Pd        3.32300467127092    2.47455154970798    2.82175106224021
P         1.75695627513170    4.05682796236912    3.02327357745691
Cl        4.96190232852310    0.92561329462098    2.39486463010311
Cl        2.05856217955845    1.18257780969320    4.23772552671661
N         5.77725493134357    3.82925078358377    2.07169280375015
N         2.20336320574086    5.62978690374580    2.56214219757208
N         1.20221648766491    4.43557108419192    4.58119896990142
N         0.43934869612551    3.64183518863059    2.07886183824623
C         4.73686102019991    3.15772457333745    1.65288258531742
H         4.76441261379197    2.91387263931480    0.58796471854024
C         6.92926481174613    4.09608594056308    1.20249713697235
H         7.69698823705424    4.56349183591209    1.82316956995494
C         7.49932499433812    2.80183236129385    0.62408996677230
H         7.61991371036452    2.05877413360124    1.40778399233105
H         8.46710235939437    2.99574755555835    0.16869040376983
H         6.84173484844053    2.38489792076729   -0.13374540593172
C         6.54124731265502    5.08083857606441    0.09907495792151
H         5.76914136438486    4.66315721904614   -0.54220213919141
H         7.40996733219635    5.30609039403985   -0.51401381653790
H         6.16771737937130    6.00822230195244    0.52686403012398
C         5.89472605356744    4.17484667659581    3.49148136663380
H         4.94076075682124    3.84971186474995    3.96120877681937
C         7.02500613736331    3.39518472688863    4.16219153707275
H         6.88083088463099    2.33041163207287    3.99001906071848
H         7.00243648684114    3.57619167973399    5.23350469277124
H         8.00318916305350    3.68648071899194    3.78687153220633
C         6.03053474882875    5.68421918919561    3.67835682615194
H         6.96141698060711    6.06050389888420    3.26016556727369
H         6.01782622810807    5.91984272966841    4.73913884710434
H         5.19629198258797    6.19294974415092    3.20085783917827
C         2.71436730442862    5.76709905157854    1.21853924298673
H         1.93554775477680    6.08208569046882    0.51392716617445
H         3.10909519244763    4.80170704943093    0.89436044554296
H         3.51681011047679    6.51057916552742    1.19370645553359
C         1.62432832189253    6.85250307550730    3.07593802479564
H         2.41450373946626    7.59221317067153    3.24010344045971
H         1.12905909053377    6.64813531456724    4.02116944757011
H         0.89931425260268    7.28309106138029    2.37560843309398
C         2.34139038864456    4.56686132020197    5.48200247939729
H         2.00034789878902    4.97674871907154    6.43350689441429
H         3.06715121067890    5.24975727362005    5.03770307143162
H         2.82257081665302    3.59368570086688    5.66825592612961
C         0.15142649933843    3.61998699088755    5.17313741503892
H         0.53197134640527    2.66611447390953    5.54543134942013
H        -0.61718881772671    3.41789924665059    4.43315295117697
H        -0.29107402579774    4.18162550096827    5.99936086690804
C         0.35101248060081    2.33890778627739    1.45105342424769
H        -0.37962251892595    1.69671805775151    1.95382325187092
H         1.33972393457337    1.84525436856513    1.49755320228220
H         0.06202105455592    2.45023395150514    0.40152956759702
C        -0.76677421281001    4.43911880018382    2.02169719775248
H        -0.96697364960954    4.75399949028518    0.99113316643329
H        -0.64251789276346    5.32229384580282    2.64507806307722
H        -1.63799446095625    3.87758800536856    2.37596586467933

