30
CSD_code = WETMOX | q = 0 | S = 0 | Stoichiometry = C8H14I2O2S3W | MND = 7
W         2.74014008932817    3.38313880753684    0.25700308122837
I         4.12234482373926    3.84757051650332   -2.13434697714361
I         1.11371445621756    1.43497658883286   -0.92532390633617
C         1.40880987175800    4.67368393891814   -0.47219105682383
O         0.64567319328477    5.32340860470339   -1.06789780001062
C         1.85410921150812    4.91285800419429    1.11523686965954
O         1.43784800876794    5.77986577457602    1.80428883930050
C         4.86382558737419    5.08074673775280    2.80816915160176
S         4.72367388688243    4.76544973103659    1.02079778273809
C         6.16650599146490    3.65792088610238    0.79199403112182
C         5.92182441069256    2.24732819912592    1.27744641060403
S         4.37089610033336    1.52369957675997    0.58517179071245
C         3.85106530117092    0.52585140528718    2.04932016608818
C         2.36110878380028    0.58899279276983    2.30390103165962
S         1.67644755705762    2.28951871993433    2.27721145977418
C         2.25418245198515    2.87374652802253    3.90159263885168
H         3.96399460112260    5.61481715541192    3.09832853542689
H         5.73155510470485    5.71350121803370    2.97277106254799
H         4.95708116389063    4.16012150552096    3.37547038004078
H         7.00277900596433    4.10939411627534    1.32647964987005
H         6.37579000025772    3.67522029278789   -0.27834328024931
H         6.73744865392821    1.59543818663868    0.96046625550641
H         5.84758659357868    2.21755579309106    2.36593580382462
H         4.41229199270326    0.88842623069026    2.91169771887349
H         4.14945591383812   -0.50301262602231    1.84249577648569
H         1.80823613250892    0.04934933607778    1.53410990699440
H         2.11990520481160    0.16477752224155    3.27897105064817
H         2.02230365087642    3.93354062658796    3.94885729395862
H         3.31965362820944    2.71188843501525    4.03228577544156
H         1.69694862823964    2.34472539559355    4.66980055760451

