92
CSD_code = WETQAQ | q = 0 | S = 0 | Stoichiometry = C34H54CuNP2 | MND = 3
Cu       10.00910560615853    7.99640321975586    0.66806365040588
P        11.68944150427367    6.57490327375490    0.45935029462119
P         8.93356429133958    9.91848028166537    0.46821196401031
N         8.84116063188896    7.03599826877919    1.85851356665104
C        10.15617548538990    4.21857702978548    4.61246580187059
C         7.95525419696258    7.72265904151398    2.63901194254705
C        10.86448092490366    4.98972159393192    0.92891626333800
H        10.04115101228100    4.85572922267320    0.21923222369640
H        11.55873995316426    4.14822434683427    0.83249755798941
C         7.87271520745629    7.17690836870056    3.94784442649760
C         7.03832362763505    7.74465790851931    4.90131083775221
H         7.00165554513384    7.30365524499974    5.88449675236372
C        10.66291337743292    3.19538792997258    5.62016149617328
C         9.19424433119108    5.16465885374988    4.92196249876288
H         8.74705015675945    5.21666492401378    5.90167076102924
C        10.68788643069299    4.19774500721825    3.31411241900559
H        11.42958173098901    3.45119508837044    3.06276222201844
C        13.03820198974133    6.63808938214857    1.74430590623078
H        12.48954467421261    6.37634707387951    2.66247049513764
C        10.30468972472548    5.07836929788931    2.32145796109472
C         6.28156719761048    8.85718354091415    4.57607553213420
C         7.21403199439687    9.39816684189199    0.90080157244146
H         6.51634346891098   10.23539498961230    0.79237760738818
H         6.94447002963436    8.61346670018896    0.18605268130361
C         9.35143449694822    6.04821523041434    2.65178340190129
C        14.16802959176481    5.63415959966332    1.54720982822577
H        13.78061875864491    4.62495241482105    1.42593594430282
H        14.81751700693842    5.64113581963357    2.42124668413244
H        14.77154059991601    5.88437403151071    0.67727325320141
C         5.36820597029646    8.87497145939413    6.94677979558471
H         5.03061978794416    7.84337574457141    6.87952196784792
H         4.69540978096560    9.40678847242285    7.61767985682633
H         6.36441547461992    8.89535622087108    7.38284078066283
C        10.00484876719426    3.34752310760003    6.99429681262442
H        10.20509528122596    4.32983960400064    7.41615644740782
H        10.40636523655974    2.59929189918721    7.67585795563556
H         8.92921671142296    3.20100119621729    6.92949695088250
C         5.80483308945063   11.00410345076889    5.75255570082625
H         6.83039641357549   11.03754079077749    6.11556945564773
H         5.16568745544811   11.50878585983311    6.47499601184265
H         5.75785653233012   11.55330404526546    4.81587108747344
C         7.17716401115653    8.83357057731312    2.29397931169466
C        10.70428102069802   11.45622168674516    1.98285142488222
H        11.20529365359929   10.49889083935851    2.12427948777483
H        10.87034944207966   12.06575946315476    2.86958290783862
H        11.16161069485825   11.95804076809348    1.13305336021662
C         3.91692943241843    9.50921201985921    5.03915564063022
H         3.82981762626939   10.03407857088317    4.09160854502151
H         3.23893869278176    9.97711128793168    5.75096434333473
H         3.60175220114273    8.47898791852932    4.88654154584792
C         8.46492313186198   12.53874876388728    1.52833098921826
H         8.87385904863495   13.08009697363630    0.67793587557600
H         8.55780406622910   13.17366846955611    2.40813583916291
H         7.40591338652414   12.36107414490668    1.35384180291571
C         8.79099199845985    6.07749871589412    3.95664051966006
C        10.03821221187997   11.36107636022757   -1.61822065149082
H        10.35662979890254   12.17338953142614   -0.96957552312841
H         9.96581141696750   11.74703827855468   -2.63402573326696
H        10.80248647647011   10.58428464156055   -1.59646412201679
C        10.36082761072092    1.78077118858306    5.10545935878869
H         9.28985795887722    1.65841591273723    4.95690793900595
H        10.69820096904711    1.03638932503361    5.82471209303057
H        10.85821550022695    1.58849405100267    4.15856651413190
C         9.21088919049970   11.23044739181622    1.76359100695225
H         8.80514775355524   10.75105301750387    2.66785534713304
C         5.35686405551844    9.54635184155089    5.57068712586262
C         6.36974616694941    9.37539580995034    3.27504846448217
H         5.77242620605915   10.23844239426136    3.01229408300453
C        12.17821913097793    3.36895219768364    5.80054648420796
H        12.71047797822643    3.20438619444587    4.86740025944007
H        12.55506707765525    2.66037577802216    6.53608240927163
H        12.40057578293036    4.37687725518209    6.14593331454421
C        11.36188326860060    5.84345507004517   -2.16739127553951
H        10.86313107754498    4.90674972323045   -1.93063785858672
H        11.75978413659082    5.76948479595682   -3.17824459020433
H        10.62077128902102    6.64390598554912   -2.14680770589117
C        13.30362163315392    7.33835512779556   -1.65690829393203
H        12.69039220745026    8.23927714189494   -1.64375407149671
H        13.65438464029529    7.17358840508928   -2.67468017780256
H        14.17102894855232    7.50478536505836   -1.02311406252355
C        12.48137354016950    6.14718148398324   -1.17394709339349
H        13.12222156972783    5.26633213431331   -1.05811172153584
C         8.70045229523975   10.78078510411786   -1.16855252489945
H         7.95562285308935   11.57767660574014   -1.06921353647030
C         8.21297785763272    9.74115442126469   -2.17533346218061
H         8.85570599409924    8.86017824378778   -2.13835154625904
H         8.24302725376759   10.14630195430420   -3.18559636878391
H         7.19214946459109    9.43154266056985   -1.96468473292614
C        13.56370656169265    8.06262139852092    1.90046669878656
H        14.17909221535642    8.35578016928011    1.05291001268701
H        14.16480761677499    8.14917212169649    2.80414068649620
H        12.72899783631715    8.75966434081082    1.97261329124130

