38
CSD_code = WETSEW | q = 0 | S = 0 | Stoichiometry = C18H13BrClNO2PtS | MND = 4
Pt       -2.25118962225703    5.21729812703055    4.60657375205070
Br       -0.24185741134637   12.88241024172049    0.72561897399495
Cl       -2.75728814186909    3.65320285557802    2.94365261775791
S        -2.69544438194294    3.51725444426717    6.00910703887424
O        -2.59618514486792    3.69615578579291    7.44832150093517
O        -0.47397548591764   11.29911777931534    5.91280075480088
N        -1.87357505048404    6.72273144246622    3.30835782984769
C        -1.69541252237323    2.05263716637137    5.61042062783432
H        -1.84737341288258    1.80357501546837    4.56647335856513
H        -2.00421072491314    1.24595557632732    6.26535153032739
H        -0.65545241518180    2.30450979734716    5.79426584460107
C        -1.74734981713992    6.62750155259501    7.34299599916908
H        -1.98716999601348    5.71690700970497    7.87256402404862
C        -4.35137143143103    2.83602382367129    5.69561579329406
H        -5.07380874853239    3.62140981243513    5.89697039841967
H        -4.50679345182094    2.00507520955179    6.37410490811228
H        -4.40866071383649    2.52622878414621    4.65867368129296
C        -1.52562530061530    7.87149773848658    3.89820113999070
C        -1.22430291583550    9.03885814911579    3.16992196748288
C        -0.86222601466620   10.22652449894477    3.84544359026074
C        -1.79483824062217    6.64961254288796    5.95352565621739
C        -0.78786205034106   10.27553888125956    5.33580470941259
C        -0.57516647344534   11.35237978524708    3.10473459972880
H        -0.29799603317268   12.26300574863308    3.61541188430802
C        -1.93822039719315    6.67984498918767    1.96197692077370
H        -2.22292608364321    5.73050960246657    1.52796677304673
C        -0.64499913525998   11.30523322483162    1.70723550090208
C        -1.11515301943487    9.02441974699271    6.04167106663277
C        -0.99377580177726   10.16278240264322    1.02950863240572
H        -1.04071380020849   10.15070968672462   -0.04876384437900
C        -1.29279266144044    8.99627762863096    1.75723037170476
C        -1.47139333095239    7.86866274876904    5.32935859133011
C        -1.66357269779041    7.76352001078019    1.17091358310758
H        -1.72945740499861    7.67970977859220    0.09799409964900
C        -1.39541025210268    7.76237771559815    8.06575568987121
H        -1.36709834599178    7.71415448422373    9.14459814228654
C        -1.08105507561159    8.95328704135379    7.43088537237057
H        -0.80829649208498    9.83409917084611    7.99245691897149

