35
CSD_code = WETSAS | q = 0 | S = 0 | Stoichiometry = C14H12MoN2O6 | MND = 6
Mo        4.65342263868235    8.53055742191340    2.43314710858506
O         4.38194345112782   10.14317331005418    3.30139885850036
O         3.99905397378171    7.55182002783188    3.58477061039968
O         4.11396755139981    7.38660457519136    0.99899882786524
O         5.59504661665883   14.41500413569013    4.96193889350113
O         1.94860441115297    8.82856742931107    2.38420469235712
O         6.28664023029018    8.50789936210559    2.23118583589041
N         4.25609444114776    9.81105156313517    0.73705717456254
N         4.06591117964326    9.13568876960773   -0.42464108473997
C         3.88522266688304    6.91913489727311   -1.33198571041872
C         4.02813817152446    7.85292683623795   -0.21050755682204
C         4.69578754379537   11.40175768884618    3.08114997158006
C         5.28540814659477   14.10808171549169    2.64655689920599
C         4.99290602821968   12.24447774069962    4.15513455127462
C         4.70508553201757   11.92916166274744    1.76128802124032
C         4.44426975840137   11.08943189068440    0.64245280670477
C         3.95069389136699    5.54833806236900   -1.08074239578622
C         3.82291777973834    4.64999625980541   -2.12264831889795
C         4.99599973959528   13.29296777964025    1.58419796830180
C         3.56407826191007    6.47251789886454   -3.66899806812771
C         5.29482039975744   13.58153861952357    3.94697052791994
C         3.62857156641131    5.11019427364826   -3.41591695683301
C         3.69335523608976    7.37887886974228   -2.63441499208972
H         5.51635859339058   15.15186217091694    2.51330076600782
H         4.99278198175261   11.81800225194617    5.15043564245750
H         4.43324530221771   11.53319837422008   -0.35299208832519
H         4.10743498600589    5.21270241838144   -0.06461542404904
H         3.87561078628910    3.58898904536553   -1.92936054593662
H         4.99840024902572   13.69512441077809    0.58239993741863
H         3.41362848854793    6.82533851955634   -4.67844379338310
H         3.52872912819293    4.40622493986002   -4.22885794476451
H         3.64763664730860    8.44162945909492   -2.80845792969280
H         2.01523725982794    7.93661571303051    2.75498905249842
H         1.77857447148822    9.40693884271005    3.13614965323130
H         5.59392288976258   13.93910306372648    5.80265501036384

