82
CSD_code = WETTIB | q = 0 | S = 0 | Stoichiometry = C45H30IrN5O | MND = 6
C        10.04932171434612   11.71881343234212    5.28360312157685
C         9.26150876888251   10.69901846923540    5.85647406548385
H         9.05295905144932   10.72411464783045    6.91346471002105
C         8.79573266773595    9.67846787675079    5.08216981811831
H         8.22103096495704    8.86854347964042    5.50728426595363
C         9.04753118726753    9.69456679441172    3.69400463962947
C         8.54001111334824    8.71136555818519    2.82428752764571
H         7.95791408502687    7.90383059170260    3.24434863217554
C         8.76909645554553    8.78595970348498    1.47786942131383
H         8.37863459930978    8.02885080884549    0.81457650092911
C         9.50011225474991    9.86030885896786    0.95299500652664
H         9.65188964227500    9.92731148173770   -0.11367276070012
C        10.01734469573474   10.82608829067030    1.77384940341441
H        10.57335157570500   11.65323617819948    1.36378816225056
C         9.83257580434122   10.75787717730461    3.16867403991610
C        10.56525495561879   12.85640462393481    6.02768988013647
C        10.25715082134565   13.13510853619725    7.36058231451023
H         9.61960274520764   12.47466002595999    7.92979111039324
C        10.76515643794051   14.26749194706531    7.96167614634470
H        10.52756668028682   14.48516890021261    8.99255813171564
C        11.57681259200914   15.12970230490433    7.23729895679116
H        11.96653189345962   16.02053269925928    7.70901866286982
C        11.88963877704221   14.85547275445705    5.91693601338351
H        12.52120209752280   15.54418850783155    5.37320607841971
C        11.39916824345439   13.71857468389548    5.28064385485219
C        13.56420704802797   11.17678320772426    1.81815570381030
C        14.30987013693921   10.58606940479659    0.77459650793984
H        14.11531992639169   10.92994380775597   -0.23124673246269
C        15.23572582106971    9.60452625830464    1.01326231022897
H        15.78743565945183    9.15939442095984    0.19757649599359
C        15.49298070475205    9.11628410047387    2.30370609780664
C        17.79823178025032    6.50198512261205    1.93870728457944
C        18.92834439995183    6.24476333665917    1.15349451479617
H        19.22824552325907    6.98008479250431    0.42208343766277
C        19.64878403710340    5.08332482304121    1.33372559356871
H        20.52600860128267    4.89572354839870    0.73070894701561
C        19.24936905977896    4.14944817093216    2.27922555371820
H        19.81115552360944    3.23584720071465    2.40882473379722
C        18.12214253414218    4.38775174229211    3.05138503497283
H        17.80650815852730    3.65638702948178    3.78277006139432
C        17.40171375226500    5.55169863289338    2.89033515848426
H        16.51394629805586    5.74861515027827    3.47377749192644
C        14.78347552722225    9.68598162846637    3.39942657108461
C        14.97019448838505    9.26877016933610    4.72851843960066
H        15.68244999637828    8.48240875117457    4.92445545195368
C        14.24680269159809    9.86521143071508    5.72925824883265
H        14.35533973760331    9.56436342569792    6.75992891607068
C        13.36047945783105   10.89415974799174    5.40310409550475
H        12.79594518316232   11.39684647431864    6.17797626220938
C        13.84566953814894   10.71858431360118    3.16371070994078
C        10.76705912606807   14.36050295962830    2.52242039248372
C         9.38450516710818   14.48926685550012    2.44546227958873
H         8.74928753538023   13.87532612157611    3.06920523287030
C         8.79928111252232   15.40501240719195    1.58705953320407
H         7.72278265445924   15.49429188535317    1.54909639905564
C         9.58477126282646   16.20967989793654    0.77418608293376
H         9.12109809596106   16.92075077383672    0.10620376175245
C        10.95907342583414   16.10141442979791    0.82222986506441
H        11.56490114187762   16.73691671862402    0.19293891678997
C        11.55333089236937   15.18499123728307    1.69008158045972
C        12.98932436065150   15.01692105862803    1.84637599876573
C        13.94549314127283   15.54648464098796    0.95413109737879
H        13.61065921257014   16.10037532564941    0.09235346151309
C        15.27131759465583   15.29247609120082    1.14584438778307
H        16.01522880635995   15.62556789274028    0.43674901775151
C        15.68197090873698   14.59768992654293    2.30385701767597
C        17.03338120601728   14.34698736850494    2.60613331086283
H        17.78732871311072   14.67087953554481    1.90349196190056
C        17.38344422438393   13.71925910765225    3.77007432291332
H        18.42062070499564   13.52095333015238    3.99356849464644
C        16.39428824196795   13.36039942772217    4.69628383239873
H        16.68392566811652   12.91580887265561    5.63679505558448
C        15.07107304919342   13.57708817581561    4.42368597233250
H        14.30969383644138   13.34074434091975    5.14955157962696
C        14.67368503820549   14.14865002841583    3.19841335422392
N        10.37128632949746   11.70569440664096    3.98240929586666
N        13.35563377953125   14.28405666191756    2.90320535971931
N        13.17277675986566   11.31197486957949    4.16911406104649
N        16.33733604503887    8.09499374457008    2.59896928981043
N        17.07200150099580    7.63370240813998    1.65548331939559
O        12.67796589925024   12.05800939316895    1.60526060982299
Ir       11.87412915498223   12.98601508196405    3.47788056064209

