49
CSD_code = WEVBEE | q = 0 | S = 0 | Stoichiometry = C19H26Cl2NRh | MND = 8
Rh        0.83949030873036    0.97119945323374    1.14084359956454
Cl        3.00730629063972    1.38911559053774    0.45708182341995
Cl        1.03230464763360   -1.16945988601647    0.33748703282375
N         1.50058972938474    0.16957023989498    3.18273208680169
C         2.80710961457066   -0.48732414004048    3.06978348552434
C         0.53469617462831   -0.84537196048233    3.61933354391492
C         2.60464444031303    2.30796321139043    3.85720686133350
C         1.56925058480590    1.23289026785568    4.21227435695460
C         0.24503472581724    1.90151913184674    4.54246842161384
C        -0.02340162356082    2.10912198021693    5.89396407010811
C        -1.16100872390900    2.76391434516108    6.32507772369898
C        -2.07649050248019    3.22993471674764    5.39806498066462
C        -1.83478380329673    3.03038533877608    4.05381918419769
C        -0.68324550228663    2.38058636226921    3.61102235979669
C        -0.56567358164205    2.20957711184638    2.15200175472554
C        -1.31435961274609    1.23881250429482    1.39110616836761
C        -1.00435078593827    1.44268636618635    0.01520056457076
C        -0.06775636964027    2.52994118506341   -0.07675635316256
C         0.15747520084685    3.04250704710016    1.24754657487771
C        -2.38126404709357    0.32490027552027    1.90413257304327
C        -1.64502207616746    0.70490014189102   -1.11258287110152
C         0.43343691316597    3.17634110182088   -1.32625702452832
C         0.86397924637064    4.31936868297206    1.56965344721213
H         3.54565455485406    0.19853004951098    2.66397008912245
H         2.71615322747017   -1.32611520169941    2.38171627237874
H         3.14023267054481   -0.85700473661809    4.04693986815947
H        -0.43077071292779   -0.38941730781055    3.82846047467192
H         0.88912526129714   -1.34150319990755    4.53120503381040
H         0.41993529516043   -1.59035090017718    2.83252614596773
H         2.39194499843608    3.22213071340765    4.40666355399354
H         2.57772776109530    2.51727252049523    2.79011331545963
H         3.60829454370843    1.98298206691063    4.11578588137229
H         1.89875844681661    0.74110020637345    5.14386633743369
H         0.68226225349255    1.74905136109228    6.62926456545509
H        -1.33265812297886    2.90575787779884    7.38124245350414
H        -2.97185454331695    3.74052886735908    5.71833184266935
H        -2.54102209552813    3.38537469933416    3.31693781200397
H        -2.48913523526525    0.41977227452151    2.98290751856176
H        -2.16089319775751   -0.71293923415710    1.65812816871863
H        -3.33390644172072    0.58287084530620    1.43849030038585
H        -1.15616450964730    0.92427614348521   -2.05783987420429
H        -2.69446092932214    0.99718358209923   -1.18307654910286
H        -1.60146076354243   -0.36964543815408   -0.94127952410273
H         0.41697160545346    2.48276535854333   -2.16338013634907
H         1.45477703177624    3.52612410871391   -1.19001652895087
H        -0.19702981869097    4.03419891985755   -1.56915909624090
H         0.86921530350711    4.49379960818083    2.64299336767530
H         0.34782725059117    5.14855729193180    1.08289685534181
H         1.89031491834781    4.30492045551619    1.20550748784355

