85
CSD_code = WEVCEF | q = 0 | S = 0 | Stoichiometry = C36H41ClO4P2Pt | MND = 4
Pt        4.50147010752705    4.48050294497148    2.03142743315846
P         5.31310258635692    2.41041352806568    2.41008632710273
P         3.75120619882268    5.12237061573779    4.16777041154486
Cl        4.04636583686767    6.73615406165950    1.65828257576239
C         5.74637253202663    2.01089793241530    4.16421365209892
C         4.49018608774900    1.90578574332586    5.02384768457301
C         4.24508495256804    3.05570908112294    6.02399838557902
C         3.17976328846305    4.04648522675868    5.57698935757662
O         4.59378064177888    0.76459024456786    5.84793580535842
O         3.85575635145116    2.40277774110418    7.21880704174254
C         3.82228096027369    0.99860469165223    7.00625982066504
C         4.47731635720574    0.29084985436852    8.18918616984488
C         2.37445117326164    0.52604605725379    6.81347005868171
C         4.89949360452128    4.28467957356946   -0.00637646401832
C         6.14681626195711    4.96753363128210   -0.54863711177314
C         3.65352563724952    4.87527874611738   -0.58691977647165
O         3.56544992313698    5.60638224022438   -1.53835554853541
O         2.56207151976909    4.41210927706724    0.08800930503648
C         1.28981274107201    4.92783521410663   -0.29094855395419
C         0.23898193367690    3.84224279891730   -0.12796826792283
C         6.89951298773841    2.08261881714447    1.58624235075146
C         8.00304586481385    2.82946665605695    1.99287849458982
C         9.21846220312635    2.68199676715717    1.35267321418853
C         9.33898038876170    1.79915635584227    0.29064585253067
C         8.23980913528747    1.07103790182434   -0.13174693339833
C         7.02086350387118    1.21364465225714    0.50848245221526
C         4.24853279323162    1.00975580238569    1.96442526357109
C         2.99946851594136    1.30558112917426    1.42932653427217
C         2.12539019968335    0.28357097329589    1.10303090161852
C         2.49613470825708   -1.03442924694774    1.31373925733817
C         3.74102204072759   -1.33173058162720    1.84789395845029
C         4.61893020690937   -0.31520768408058    2.17510584816263
C         5.07020700613016    6.08195344524790    4.96470307796893
C         4.95366520875188    6.66424669704079    6.22362801647280
C         6.02132971809177    7.35775450478001    6.76404199163146
C         7.20973519528948    7.47165434213015    6.05997430498460
C         7.33325407243654    6.88991070136409    4.80877635003105
C         6.26786583496064    6.19668584562790    4.26476017538510
C         2.28678454112624    6.19535107831230    4.07917992910532
C         2.26715888539433    7.52812126574356    4.46440413357490
C         1.11339706228060    8.27352399378596    4.29473915653591
C        -0.01573063005280    7.70003176747231    3.73509208238874
C         0.00722844235396    6.37435871739807    3.33127476283067
C         1.15550326604584    5.62599008541902    3.50084638863221
H         6.42597156172944    2.77372864986125    4.55083780590519
H         6.26114622391353    1.04647455077292    4.19954489750881
H         3.60391604467228    1.80813151849773    4.36937022789701
H         5.18211705538993    3.59669516682606    6.22958840828360
H         2.27795458462552    3.51399938280731    5.26136644485164
H         2.91062758130717    4.67782864780360    6.42798804207714
H         5.49472625740652    0.65275989977445    8.30548029646329
H         3.91580969125627    0.50336777771307    9.09292048810757
H         4.49572570128334   -0.77853140164971    8.00564176558493
H         1.93040237080412    1.01099030592738    5.94783899870026
H         2.36161138529727   -0.54889702975122    6.65982187181153
H         1.79387663422214    0.77885290343322    7.69528702353562
H         4.90583190602063    3.21891544673728   -0.29172312614553
H         6.15593539972036    4.91516268773633   -1.63832246322811
H         6.15363637767112    6.01895854534618   -0.26821904769480
H         7.04725669265312    4.48676632762779   -0.16790892440227
H         1.35058647969043    5.27060448028019   -1.32954673029764
H         1.06622034474847    5.78891396517419    0.35050225998491
H        -0.73628389519097    4.23475497625222   -0.40245931580460
H         0.47176459649359    2.99407430754702   -0.76774705067530
H         0.20437864023436    3.50235385013747    0.90449414696976
H         7.89604513348677    3.53655683767804    2.80452153455383
H        10.07139105982051    3.26207222222920    1.67272236219156
H        10.28711174644378    1.68772332137871   -0.21368850124376
H         8.32947204969429    0.39346587306596   -0.96794942711915
H         6.16200431504633    0.65167196079224    0.16941659488621
H         2.73596044585262    2.34491667568417    1.26778537723797
H         1.15585520823709    0.51298842875447    0.68593608070752
H         1.81557735339721   -1.83415362268917    1.06099462771810
H         4.02652044929099   -2.36085140337394    2.00965112487927
H         5.59038760474942   -0.54796738022843    2.58760138104799
H         4.03094080770027    6.58224195689870    6.78074153962515
H         5.92586672437601    7.81361667062941    7.73892837028555
H         8.03809647869121    8.01702187347143    6.48766778509576
H         8.25750582031803    6.98169157745292    4.25750857418195
H         6.34051212326469    5.75023404220306    3.27337849746056
H         3.15712465625814    7.98972321270153    4.86641234181107
H         1.10120573617461    9.31301908344188    4.58852992509917
H        -0.90937145204756    8.29074409903215    3.59692846648209
H        -0.86617105337320    5.93209025259053    2.87349495208274
H         1.19911331182946    4.59779616837339    3.16056650424855

