107
CSD_code = WEVDUX | q = 0 | S = 0 | Stoichiometry = C38H62N4NiO2 | MND = 6
Ni       19.13835341423344    2.03008275024653   10.93003668111321
O        17.30043913843452    3.11987884468972   10.85780876625996
N        19.90643627980104    3.28501657147818    9.85731118828082
C        16.97523285864153    3.92742827679677    9.93127835019083
N        21.19188743470911    0.81601384827711   10.63085651163470
C        15.60096105224690    4.30284167826097    9.71161290594665
C        15.30272690623039    5.20143368945273    8.72421253005310
H        14.27100054122268    5.46313323014898    8.55888033419743
C        16.26294947187017    5.81419748710612    7.89406497079655
C        17.57066595084578    5.47204774923167    8.09427114237972
H        18.35600784556545    5.89432609740223    7.48596876080745
C        17.95251791272320    4.53571119867096    9.07699991942350
C        14.51632282396526    3.66443050398366   10.57091407962432
C        14.55968933585165    2.14431013963713   10.37138961428509
H        13.81440515560693    1.65623103605288   10.99722236197887
H        15.54029171287510    1.76109978782184   10.63179042581070
H        14.36036171727411    1.89016774017553    9.33234801998820
C        14.78056795247171    3.99981574950441   12.04508718231139
H        14.78076393303305    5.07837072955431   12.19498940414625
H        15.74586461079424    3.60227815875949   12.34027934643369
H        14.01148473283625    3.55983448174338   12.67745092101966
C        13.10543922002281    4.15145236352930   10.22390756357862
H        13.00820232008725    5.22490698571203   10.37400258149006
H        12.38789647485264    3.65597225747576   10.87574781335231
H        12.84542032738676    3.90665931856251    9.19651041853976
C        15.79534422214463    6.78494472771657    6.82098371079179
C        14.86731994929162    6.04311101938432    5.84853519961974
H        15.39054023955720    5.19820582449458    5.40576867298739
H        14.54393807859284    6.70926354114638    5.05066465267208
H        13.98382591816912    5.66583678307457    6.35588206876872
C        16.95843830162777    7.36921970379758    6.01451609109068
H        17.50547220413825    6.58446956538659    5.49741856297121
H        17.64333282133372    7.91613813157874    6.65861061862316
H        16.57343535366902    8.06049048037644    5.26691649599290
C        15.03903013935427    7.94902788785242    7.47616835624211
H        14.16361082916383    7.59904242305690    8.01593116328932
H        14.71024632016202    8.65906232904113    6.71944602801990
H        15.68710514846025    8.46808341272420    8.17954531617007
C        19.32524355868354    4.19004773924102    9.14219883441918
H        19.96239024918379    4.77144109227738    8.46625747270289
C        21.32993233226050    3.08710355608876    9.69253566328084
H        21.85130394225992    3.42964318238211   10.59501034514078
H        21.71470398813376    3.66557767489398    8.84009438312030
C        21.60635118583869    1.60002837759350    9.46300728878898
H        21.00534773169440    1.28238675622847    8.60891803466278
H        22.67143560064967    1.43933513384637    9.22885761397323
C        20.92352869237657   -0.56655583837523   10.24286494428063
H        21.81257694586155   -1.03653476380476    9.79732565578503
H        20.10566663044927   -0.59218845588024    9.52817089834948
H        20.63003413054539   -1.14006863350547   11.12106841590338
C        22.26054136767743    0.80539406710014   11.62020198314233
H        23.15596671775432    0.29546756158943   11.23040325963123
H        21.93370790110212    0.27425180248276   12.51308849862159
H        22.54005187058321    1.81820170929508   11.89719745590756
O        18.45672223926217    0.96482452922381    9.20446592404105
N        18.35737272012689    0.77582707675977   11.99323731731980
C        17.46300108902630    0.17201561294437    9.19165585765922
N        19.53965929672997    3.22019132178592   12.98196815310641
C        16.80097834426219   -0.18153556991922    7.96093604279793
C        15.75774898617451   -1.06582045572873    7.99272214741315
H        15.26048550909754   -1.31092770223890    7.06917291035925
C        15.27872477641073   -1.68432212378792    9.16522093389408
C        15.89976398172366   -1.36254611130564   10.33910939734667
H        15.57571686339388   -1.79009012905812   11.27576400651762
C        16.96592944276106   -0.44097905714691   10.38841461743427
C        17.26792709128715    0.46334943503513    6.66152210524571
C        18.74213931388621    0.10755486962065    6.42553285478524
H        19.34274448807223    0.48664047487965    7.24564894153297
H        19.09530149004338    0.55239360876669    5.49689725958091
H        18.86699435727018   -0.97248615139744    6.36475657013654
C        17.11707716259978    1.98481571418791    6.78336130629930
H        17.69003029333610    2.35058346968326    7.62845258843436
H        16.07408759279470    2.25354121619651    6.93797762813131
H        17.47191205801596    2.47674405152900    5.87922826855821
C        16.47114261594582    0.00120755701463    5.43686473773682
H        16.56534298339002   -1.07215669402827    5.28419181795154
H        16.85942905530326    0.50066600162220    4.55083741914886
H        15.41894062752863    0.26049447629447    5.53030259173153
C        14.09908697583529   -2.63866643669902    9.06401057162468
C        14.45549342536715   -3.79712227819226    8.12200192447799
H        14.68215968442515   -3.43912746381182    7.12168618269547
H        13.62421268768148   -4.49641851283772    8.05229454916181
H        15.32625760271670   -4.33090314180447    8.49751326462475
C        12.88620210775661   -1.87490709114382    8.51377516861926
H        12.64904657148315   -1.03487043603942    9.16321244717647
H        12.01828173993465   -2.52977480301477    8.46072832354141
H        13.08181133847147   -1.48785163903883    7.51767405425340
C        13.71012091296594   -3.23308529802449   10.42045767381559
H        13.41146774245538   -2.45203265657163   11.11560076994141
H        14.53552715619081   -3.79618962786717   10.85021721494998
H        12.86827073763815   -3.91153467448864   10.29391655409924
C        17.47976392481849   -0.11440909610788   11.66799648311990
H        17.04046904435943   -0.69773157457526   12.48509045364229
C        18.66775709814651    0.95568272886838   13.39471437837363
H        19.68612765962571    0.59750521738948   13.59033285777298
H        17.97933254321631    0.37994771061000   14.03028057027354
C        18.56061471500347    2.44076993949422   13.74632313183002
H        17.56143755875278    2.77462067147507   13.46044970491639
H        18.68875381928741    2.58820634692489   14.83118056979929
C        20.82296057292771    3.20815574345986   13.67034385101662
H        20.75192076403781    3.70852781011143   14.64930324013203
H        21.56710621246807    3.73687695373270   13.07629601183271
H        21.16375364094406    2.18940957866035   13.83359196975537
C        19.10264328129005    4.60945760117999   12.86792913928961
H        18.97603002412382    5.07140124306538   13.85807206102483
H        18.16136154377190    4.65209066665555   12.32710075568787
H        19.84484504154637    5.17931963224534   12.31053524684167

