122
CSD_code = WEVFIN | q = 0 | S = 0 | Stoichiometry = C47H71N3Ti | MND = 4
Ti       13.81423091712133    8.02749110450661   10.20770891213980
N        11.82866836431350    8.05615062854433    9.55196731136513
C        11.66946745671501    8.76713972916976    8.47811763920386
C        12.83970196169813    9.43350409802962    7.96935679999647
H        12.72213850756309    9.98987092682697    7.04442720579979
C        14.00757785280467    9.39685591847620    8.65761094857442
C        10.87753555206703    7.50995044272704   10.41547201692421
C        10.57837911061074    6.13587298544749   10.37226173309820
C         9.75381029664026    5.60145373662591   11.35073227640225
H         9.52518867705261    4.54689255225103   11.33703661180840
C         9.20953581965546    6.39941237756463   12.34012773563925
H         8.57015419222872    5.96664810125224   13.09499007779925
C         9.47465401647122    7.75659376036573   12.35359380238442
H         9.03246883754259    8.37256837590608   13.12156591257557
C        10.29922529036335    8.33612333094774   11.40136147305232
C        10.56316553553829    9.82889662387240   11.42843201716683
H        11.05066803582842   10.12107211690921   10.48871009575914
C        11.51362600708640   10.18976251883623   12.57367288390537
H        11.08254045372911    9.90597912918329   13.53187823880187
H        11.69508214028550   11.26348066002270   12.58532020468219
H        12.47149006016410    9.67752151678766   12.44971442810590
C         9.26638356787389   10.63537731731899   11.54911614702253
H         8.54111013749479   10.33149163836483   10.79648640835197
H         9.47596832398799   11.69509528130846   11.41491530407814
H         8.81332101147162   10.50623590765912   12.52861349444545
C        11.12736544023532    5.26254854310100    9.26402025096485
H        11.52389444558833    5.91293618699793    8.47464285816683
C        10.04727636114458    4.36510833223282    8.65177801514546
H         9.76582676841669    3.56829800117203    9.33556848371831
H        10.42560503848125    3.90588320507592    7.74113037423216
H         9.15176654465719    4.93193802131167    8.40315588830682
C        12.28748690397203    4.41266322524816    9.78622166695921
H        13.12689939541954    5.06262804542251   10.05251603377598
H        12.62436944687276    3.71869752253331    9.01984834663799
H        11.97575788926925    3.83227311173533   10.65175397453016
C        10.37806887990198    8.93934524474088    7.67370578067842
C         9.14097259936536    8.26376920932592    8.27058847910685
H         8.88553779094745    8.67141414379043    9.24407210552125
H         9.28173955003506    7.19247901125007    8.36819612206784
H         8.29452847982265    8.43095955281855    7.60546933121251
C        10.06059797665544   10.43498915924739    7.51581197413909
H        10.86175464471731   10.97317952617510    7.01789700292132
H         9.89156692629181   10.89447798962783    8.48757472569110
H         9.15623411194371   10.55400875201167    6.92238932585116
C        10.62704966632799    8.30927422425615    6.29200653567934
H         9.73263785386261    8.40251042629672    5.67916153577118
H        10.86305105132649    7.25222211595137    6.39772712224173
H        11.44921454571731    8.79066165021686    5.77064487906290
C        15.20488136644014   10.19580537025121    8.19057090776786
C        15.28388094885669   11.46434695074621    9.06266356153143
H        14.34505837057343   12.01653028967879    9.01961267778339
H        16.08105394523890   12.11169920994819    8.70142451816553
H        15.49683741860084   11.21618618888716   10.09969995779068
C        15.15228469131016   10.65235622323326    6.72358390341074
H        14.93971544853604    9.81744428164304    6.06225761209526
H        16.11363814424634   11.07664372981507    6.44055013579674
H        14.39337126263515   11.41857366506295    6.57768173456414
C        16.46397296553380    9.34653065206226    8.41111092172716
H        16.43520726963590    8.90752696193476    9.41406651805131
H        17.36401148165808    9.94912614336431    8.29315838229560
H        16.49628727201888    8.52521912012912    7.69662533374392
N        14.65017889039931    6.75583120012824    9.42144839132288
C        15.55486060424462    5.99693879833835    8.80036999104336
C        16.73989155098595    5.55419097009478    9.46296571405927
C        17.65397692257702    4.76288275038550    8.79723967561219
H        18.54833875396865    4.44026013830619    9.31137071994440
C        17.45323390725244    4.37124235936661    7.48464258011220
H        18.17881235162203    3.74963716915480    6.98082284821471
C        16.31109086367688    4.79094275926068    6.82572675662067
H        16.15846764863709    4.48989833535691    5.79834351896768
C        15.36755430086335    5.58508933314395    7.44714253209263
C        14.15357010142131    6.05749708462324    6.67808794596849
H        13.54899501060076    6.66190484870130    7.37239847783369
C        13.31502316877815    4.88774850110972    6.15798237614506
H        12.40247122515434    5.25237834790616    5.68757365379005
H        13.04712215169053    4.21657679306883    6.96834578320509
H        13.87072924964372    4.31754589823815    5.41703203965480
C        14.57335224547551    6.94453075816949    5.50383460278123
H        15.11664758709908    6.36602154761153    4.75988166780191
H        15.22355672710890    7.74128235654627    5.85386258916635
H        13.70015268600314    7.38442382278407    5.02414490735421
C        16.98728146616346    5.95784798996428   10.89792242796481
H        16.09782602530824    6.51784136767863   11.23551005754163
C        17.18558057319279    4.73878719088035   11.80319031264847
H        16.41866909326227    3.98936378692924   11.62080679666198
H        17.14287581617819    5.04102814768186   12.84745475422230
H        18.15371841897352    4.27818657810298   11.61879870718626
C        18.20503188536680    6.87828814239203   11.01503225016102
H        19.11806653370797    6.33811336197238   10.77297280616755
H        18.28446015177476    7.25963472303942   12.03108066306257
H        18.11722372703932    7.71692888227474   10.32894008087247
N        14.54818132643959    8.91745272484051   11.73990270318398
H        14.87935015701049    9.84444786106695   11.47184407125021
C        15.21208172287309    8.47471183164506   12.84989357194794
C        16.25223166490601    9.21633412884304   13.47238458338729
C        16.96167989166585    8.64967891609037   14.51693935774696
H        17.78686345728577    9.19081803016372   14.95414368774643
C        16.63674456624518    7.40758925024135   15.02626794509808
H        17.20676518498768    6.98236207651301   15.83869051521725
C        15.54258943378144    6.73767001724409   14.50988408175742
H        15.24483886066063    5.80390096162586   14.96355157904783
C        14.82797880150875    7.24110297334405   13.43888858836529
C        13.55986036770352    6.53971871549237   12.98895529213403
H        13.25722816015954    6.94373065373599   11.98957224765738
C        13.70973507233014    5.02548117282335   12.85018283188760
H        14.07448429663324    4.58032877613869   13.77224000474955
H        14.40178396305208    4.78169376759520   12.04888661889795
H        12.74013740956538    4.58320676780508   12.63110288516956
C        12.45922875379616    6.84333644529598   14.01387754788483
H        12.72329970187549    6.40085061033481   14.97297042784415
H        11.50426058871804    6.43259502557362   13.69224801949140
H        12.34927634606668    7.91505746461924   14.15974318900254
C        16.61194342021284   10.61922438500340   13.01846826145461
H        15.74010227481595   11.07110001551740   12.52599857116005
C        16.95536202971808   11.54903404990717   14.18566442606336
H        16.20209927599691   11.47632131225279   14.96718354064273
H        16.99409678105885   12.57953271052362   13.83581380475796
H        17.92436841688165   11.30839464353919   14.61418891309947
C        17.77061133993174   10.57787306581566   12.01800978307866
H        18.65825832637944   10.16964011611678   12.49597315413383
H        18.00174389580883   11.57815876038648   11.65458130561239
H        17.52145985122431    9.94361406054420   11.17014620616665

