77
CSD_code = WEVGOU | q = 0 | S = 0 | Stoichiometry = C35H31BN6O3Zn | MND = 5
B         3.33340094194121    8.59307498586250    6.97519892713596
C         2.24433591778651    6.71531536131224    9.30704802100938
H         3.30860710407178    6.48880060758987    9.29341221062914
H         1.72587215705256    5.94967578825613    9.87774446731254
H         2.11004151136744    7.67455135487408    9.80452372780537
C         1.69857710816844    6.76483003469300    7.92530839892053
C         0.63067911635332    6.06204302379589    7.39421706486669
H         0.01903686131995    5.33811723280141    7.89339464247056
C         0.54012615563810    6.48091430049550    6.06232288883541
C        -0.40184388696684    6.11415635710914    5.01300661709428
C         0.03012016683465    6.01079455742993    3.69241813070918
H         1.07713732643703    6.14219108784949    3.46037696376261
C        -0.87570566000154    5.73994587790702    2.68380209479271
H        -0.53245780146181    5.66989112616891    1.66188717231845
C        -2.21749835287350    5.56514961782104    2.97978000344532
H        -2.92536166137762    5.36290465180364    2.18889306275759
C        -2.64965562276362    5.64760158958043    4.29329004999652
H        -3.69545241177224    5.50837174183181    4.52700388558862
C        -1.74845362566950    5.91668888182163    5.30614264459448
H        -2.08767478687749    6.00181444448564    6.32794156655727
C         6.27529006036414    7.51159032363513    6.72621389249984
H         6.43111242794768    8.36570111933817    7.38243309696028
H         7.23867364906422    7.16857811869996    6.35876411506534
H         5.81687901547713    6.71536859615615    7.31026457589626
C         5.40840877806410    7.88214600674180    5.57672362598061
C         5.69181413062860    7.79348108729006    4.22691870084289
H         6.60261669411519    7.45706936344921    3.77484711429966
C         4.54560970645705    8.26706368239920    3.57701440417260
C         4.31130573170896    8.41755265903352    2.14537373351902
C         3.71410088772676    9.57116379018912    1.64755411860420
H         3.44731596256678   10.36156657263622    2.33120224299473
C         3.48402152721167    9.70704402279057    0.29227390827135
H         3.01520770094492   10.60393429141044   -0.08629039583067
C         3.85347516236605    8.69795550145394   -0.58150195337385
H         3.66993786262017    8.80330901708586   -1.64128736416791
C         4.46376122969140    7.55391249480748   -0.09500625588622
H         4.75670974132410    6.76664559600799   -0.77513988779593
C         4.69450858954285    7.41368413276097    1.26075382623593
H         5.15817467754110    6.51550681547592    1.64301395620839
C         3.34049686084603   10.91511755084927    9.13561214200886
H         2.98051022958993   10.08579924585213    9.74179784048465
H         3.17491303224746   11.84294230778291    9.67642304207611
H         4.40947799013876   10.78050240661878    8.98224667228344
C         2.62707517229462   10.96406625384111    7.83231005061208
C         1.81563241118745   11.96875257846048    7.33642220172120
H         1.57076999858979   12.89652168715642    7.81232868275101
C         1.40921497449293   11.52495837766429    6.07225956530771
C         0.52042114282224   12.14406270018010    5.09849884697697
C         0.73226737307289   11.95538028969785    3.73464465523553
H         1.59865383192159   11.40223308038487    3.40269791049126
C        -0.15521564265828   12.47352242428135    2.81097204110716
H         0.01254143112588   12.30880545057830    1.75619929375650
C        -1.25694370000100   13.19856275094500    3.23466558516449
H        -1.95387649711639   13.59807715310731    2.51222128481581
C        -1.46050261215705   13.41229314869125    4.58791676013595
H        -2.31659015355019   13.98136479880236    4.92109903842945
C        -0.57889265366129   12.89000062628069    5.51574392951267
H        -0.75254110203423   13.03686422747868    6.57155674524892
C        -0.11665228864221    8.95274602527184    2.45361932112654
C        -0.70773219972701    8.92850059661914    1.21478775569831
H        -0.15848235147731    8.77699229954870    0.29937013326235
C        -2.81858715353973    9.27337979645024    2.06256733896412
H        -3.85779326400366    9.38391051155033    1.78652436964461
C        -2.37328455402498    9.32708163494544    3.34532303714614
H        -3.05778834308065    9.48620539378246    4.16159180555130
C        -0.98714596788682    9.16906023118787    3.61606415841457
H         3.99609783036954    8.48204229999565    7.94433449500065
N         2.19463954499211    7.55242617098648    6.95464769475081
N         1.49865883515717    7.37394056920890    5.82747035224799
N         4.16130055495363    8.37378268791107    5.70284109203652
N         3.63837320649743    8.60621271208174    4.48896276541065
N         2.68226722556789    9.98652429546044    6.90836449406537
N         1.95265764942441   10.33233327906454    5.84306207934018
O         1.14290181793473    8.80118700447642    2.65731014018464
O        -0.47263138738206    9.19909044051101    4.75422841386844
O        -2.03332913847804    9.08364846526144    1.02050453890025
Zn        1.60976380358431    8.87630271218545    4.52867173117723

