117
CSD_code = WEVGAF | q = 0 | S = 0 | Stoichiometry = C46H65N3O2Zr | MND = 6
Zr        3.68096915724757    0.18891048404894    3.10775019228479
O         2.27123662547802    1.22077538901369    2.28417348268278
O         5.53235847835533   -0.40632605912552    3.09285534330145
N         3.96417450198675    1.22512880830306    4.86901556890631
N         4.77212089797048    2.21414093293680    4.22904495121762
N         2.77511756669111   -1.72519771287651    2.22186922522209
C         2.61935052357253   -1.70058573722293    3.49604232997096
C         4.11724872633851    1.08069622824681    6.22372407826763
C         3.39657553309468    0.05928360294259    6.87203552063066
C         3.51577463254758   -0.14186663689499    8.22889506579871
C         4.35002936014662    0.65913748141744    8.99645769854104
C         5.05087099248364    1.67870820663349    8.37766370350990
C         4.94065364270726    1.89665158130460    7.01833820060947
C         4.37992856115245    3.55856093223423    4.35736594709043
C         3.06718443759623    3.89187892927449    4.68406252672667
C         2.67772686242246    5.21637596473452    4.71540678765326
C         3.58174617213339    6.22404300532846    4.42289268166419
C         4.89151819966959    5.89830573018067    4.11089149206319
C         5.29427100772534    4.57720083153672    4.08297374397196
C         1.50831216361822    2.31520968016169    2.31019465756888
C         1.85011181427817    3.44127853941240    1.51425708472084
C         1.15281133040042    4.62560759129106    1.67936530830111
C         0.08909582637094    4.71511184265161    2.55349147530223
C        -0.34515640020135    3.57932871014989    3.20606023108936
C         0.31631248852288    2.36741518386933    3.08273399889991
C         6.40042995613794   -1.35563226536717    2.74003009408008
C         6.91673073923900   -1.39146572572141    1.41742019684962
C         7.66517567458335   -2.48297922327520    1.00815527383489
C         7.97433160492897   -3.50494963512274    1.88229025330699
C         7.62439136844255   -3.38197181849405    3.21230581570920
C         6.87935754880519   -2.31019984497291    3.67800503109777
C         1.98972141040229   -2.79560568251060    4.34232881879795
C         2.42205373372652   -2.78511804871241    1.24774642919567
C         3.67094971295880   -3.66226056153726    1.07958133536070
C         2.09760979467585   -2.05452530017170   -0.06576102281109
C         1.20311993291629   -3.66155943195513    1.57470014630223
C         2.92336965546712    3.32008681565832    0.43662728647185
C         2.53158432605806    2.16248160206116   -0.49643373800657
C         4.29489869775184    3.07220405872781    1.07611242264714
C         3.05090517722453    4.57978831895848   -0.42949159647960
C        -0.26246667512738    1.11538647391573    3.73973104031574
C        -0.36399988741894   -0.00267231333634    2.69109444048746
C         0.63875870305436    0.67540673430535    4.89948274902513
C        -1.67534966959764    1.33020132814153    4.30067466109190
C         6.69412623787014   -0.20555280459760    0.48282408365660
C         5.21060774049112   -0.12362398158935    0.09810932352476
C         7.49741812377252   -0.31033520833921   -0.82112727873998
C         7.16183514848672    1.07517743871316    1.19338535366083
C         6.62901253237784   -2.14751903738784    5.17551322998968
C         5.14333097877204   -2.36225147319942    5.47359395994556
C         7.04865132305863   -0.73554299389437    5.60609579759386
C         7.43034206040989   -3.13662787098705    6.03138328263740
H         5.77553215225451    2.09691530055227    4.43019601324821
H         2.74241120915205   -0.56657661573372    6.27731866246158
H         2.95206921384028   -0.93506812764417    8.70103815050392
H         4.44377716818378    0.49474516284568   10.05908732505065
H         5.69574307297108    2.32086149207753    8.96149719636884
H         5.48967609521806    2.71994335838085    6.58240015258952
H         2.36422685389948    3.10406931468390    4.91095578953814
H         1.65801286841297    5.46136215415131    4.96918746580660
H         3.27155249736784    7.25749393206716    4.44484737770376
H         5.60727830233808    6.67784082121737    3.89301758363708
H         6.31939861308758    4.32485322344028    3.84348090833061
H         1.42968705101841    5.50396293231477    1.12142689158094
H        -0.42805398793205    5.65329209545573    2.68873445753104
H        -1.22470035442500    3.65541488838438    3.82298056005241
H         8.02420216748721   -2.54989480629529   -0.00539529000016
H         8.53088756134156   -4.36503227269291    1.54159924137742
H         7.95282577642615   -4.14781650770774    3.89459201368273
H         0.91648172838118   -2.84112735932613    4.15931959042496
H         2.14315075852869   -2.58925524084849    5.40190528371829
H         2.42201314121591   -3.77238707880359    4.12188025530145
H         4.53957326088374   -3.05100640072404    0.84035846091232
H         3.51924015292832   -4.39129998577107    0.28638759059625
H         3.88760724028787   -4.19458787459322    2.00414816555710
H         2.87884133024372   -1.34602793807933   -0.32133311020014
H         1.16271154465071   -1.50666995932442    0.03959892661744
H         1.99155541029110   -2.76801810347521   -0.88040676116991
H         0.90753305063840   -4.19265283980707    0.67127732915245
H         1.41354863360841   -4.40460472691576    2.33656042618504
H         0.36457598392992   -3.04488412072298    1.88940237990062
H         2.46632946971991    1.22415778451302    0.05342250809433
H         3.25454539499071    2.05728819051123   -1.30418814895059
H         1.55811971844185    2.36590649551579   -0.93895074712696
H         4.55554996675486    3.92237194831182    1.70471050314480
H         5.05199212082912    2.97895594654679    0.29902473727368
H         4.28183245376658    2.16359866989006    1.69605320818521
H         2.10839902085621    4.82197602918382   -0.91378314667546
H         3.79263415403370    4.40582915493323   -1.20766945455451
H         3.37976400934133    5.43219559357013    0.15987071340607
H         0.61874622091451   -0.24628767100699    2.29069025683723
H        -1.00717932827135    0.31609256142335    1.87234953123331
H        -0.79607376400530   -0.89708651791071    3.13859962858292
H         1.66562233972503    0.52873539605492    4.54067859163592
H         0.26734087346277   -0.25435632697689    5.33020383287426
H         0.63845903894156    1.43429027801120    5.68151359593709
H        -2.05596368781620    0.38138380453196    4.67492705525417
H        -2.35555037524943    1.68632333418038    3.53068979480012
H        -1.67457974080315    2.03324576405359    5.12971010952433
H         4.56121232656557   -0.08569340924245    0.99281691871409
H         4.96012385535744   -1.00980070853837   -0.48544471578795
H         5.03338396786364    0.75099045118051   -0.52550774237551
H         7.34159739126957    0.59106386921001   -1.41173452175976
H         7.17902855685121   -1.15857415285923   -1.42222034318668
H         8.56142390156898   -0.39974590906015   -0.61766916863200
H         8.19981862919657    0.95837966232726    1.50066168617215
H         6.56072184396096    1.27757812692248    2.08046729759033
H         7.10090117919671    1.92959781590692    0.52189732411540
H         4.95499340392246   -2.25186237197293    6.54007587169892
H         4.54814219757204   -1.62342778637043    4.92678868385390
H         4.84742828181230   -3.36439659604695    5.16648542778002
H         6.50235028962627    0.00799919628556    5.03248800455379
H         8.11517307819850   -0.59405486409192    5.43955306453240
H         6.83307457309021   -0.58115820080096    6.66157753090449
H         7.27261022038180   -2.89843623306645    7.08157918930763
H         8.49565826330712   -3.06476309013921    5.82521368603417
H         7.10377260662708   -4.16147401092716    5.87141751497414

