84
CSD_code = WEVJEN | q = 0 | S = 0 | Stoichiometry = C40H40N2SZn | MND = 3
Zn        5.01834986246167   14.13597522377180    6.74077775840538
S         3.54038911952465   14.69712402661093    5.08503369635488
N         5.71819938677262   15.17997299942372    8.26443206131306
C         6.00794738319379   14.22204205984908    4.00583610718045
C         4.60263709136420   14.55081522715522    3.55858992260163
C         4.58773548642497   15.88445090485338    2.83552782352986
C         3.99482545445218   13.46156434472218    2.69697705414962
C         3.67717989155492   12.23176739173257    3.26473710126559
H         3.85280201305547   12.06888936541596    4.31809887458288
N         4.84496851152840   12.39919667305496    7.65683110577982
C         3.75733642817450   13.64835040642120    1.34097282810335
H         3.99844724241387   14.59060802381528    0.87236705626807
C         4.92552749938911   12.32224899874354    8.97069546715242
C         8.66022580814806   13.78376231901504    4.76905346583415
H         9.68822647214732   13.61579594985030    5.05440499817451
C         2.89700229038073    9.80792600665302    5.88471941948339
H         1.86580429507934    9.55977319783833    5.67806052196942
C         3.44674677718156   16.67608580420728    2.83401947629615
H         2.57881838932579   16.34604662107681    3.38428347477495
C         2.89642506601152   11.41342367634777    1.15152274126508
H         2.46807890710310   10.62302327131263    0.55260462466995
C         6.69593779162438   15.16392195762138    4.78214556999945
H         6.22524246782133   16.11157624850429    5.01604047831536
C         3.18039861338425   10.93524309987306    6.64248672117470
C         6.31883199688059   16.43605126876380    8.02626040008543
C         4.51874931235238   11.24271978570434    6.91085693081933
C         5.62375685543641   14.69759141162212    9.48759793984983
C         6.67354250011391   13.06490845666774    3.61907984494739
H         6.17439999488989   12.33405958707233    3.00109522508005
C         5.69682917822902   16.30740726174398    2.10964005854230
H         6.58578338656002   15.69355622977715    2.07284543117290
C         7.98532089839017   12.84556107649604    4.00900676173666
H         8.48406248036010   11.93880583160965    3.69943676184573
C         5.24560133067211   13.39338441743428    9.80028904052669
H         5.21831895388709   13.17858573695576   10.85909906716051
C         3.13434232368995   11.21693691639753    2.50129565743184
H         2.89809856708010   10.27233318945204    2.96803685063760
C         3.21016346701662   12.63170148583118    0.57668550730610
H         3.02916738868927   12.79722781815881   -0.47557022865138
C         4.65398520888530   10.99439487544853    9.63396398908636
H         3.61150754318298   10.71065609162195    9.49608439961528
H         4.86525942556076   11.03727192225851   10.69836633953447
H         5.26205032855170   10.21260727691457    9.18209208715112
C         6.14763428079479   18.72606880560644    7.33164512059673
H         5.54129175625641   19.57141717923673    7.04011574581121
C         8.56305122112234   15.39320098463416    8.51418386877315
H         8.57063951353226   15.29634429778211    9.59971328896267
H         9.58983091611659   15.53162584903387    8.18290532197853
H         8.17678068058367   14.46211160493955    8.10014566441042
C         7.52413255305350   18.85077586036339    7.38291711972114
H         7.99326413583749   19.78882760129826    7.12635089457113
C         8.29745191391619   17.77181161947662    7.76900815976026
H         9.37298482189474   17.86953046808567    7.81781078764269
C         3.42077814635732   17.87516526651817    2.14575909775601
H         2.52540810913853   18.47923720942112    2.15907034419491
C         5.66990420294835   17.50757394814810    1.42196815685387
H         6.54137080711811   17.82257460912224    0.86617266534397
C         5.52692455298029   17.52863040573847    7.65490649718780
C         3.91185457572659    9.01049229648125    5.38740826506496
H         3.67488138301624    8.13457608451689    4.80145930465067
C         7.71257801181816   16.55657154872472    8.09564218250781
C         5.55210314839667   10.45272681014586    6.39749440294454
C         8.01397696299605   14.95104102898576    5.14559069947454
H         8.53898502725934   15.71388087886972    5.69897799928229
C         4.53426065753202   18.29849596189131    1.44104122426655
H         4.51634090366458   19.23615736377282    0.90501627164816
C         2.08019005284670   11.83213971234809    7.12164858236085
H         1.11112160158104   11.36175712480972    6.97575241549610
H         2.09696921348275   12.76719144897280    6.55755104738711
H         2.19677370272587   12.08549453570839    8.17407057412021
C         6.97881049155850   10.82049399464987    6.67423175499458
H         7.65599794523431   10.18159746954677    6.11313453146143
H         7.20810706350415   10.72281356096483    7.73572887865268
H         7.16198252881640   11.86048418657272    6.39511504540358
C         5.23195148592750    9.34048897159540    5.63387715443029
H         6.02598250624887    8.72665214386086    5.23337718174440
C         5.91813750459861   15.58157547905586   10.67650295584356
H         6.72781009767050   15.16194832100714   11.27102597367812
H         5.03476086168109   15.63176667618505   11.31150073943781
H         6.18690200721658   16.58927758241344   10.37143240663434
C         4.03505065484379   17.40651897361007    7.62229920876706
H         3.57352799757459   18.38584126886805    7.52457988538448
H         3.66660809452137   16.93009975210023    8.53008594062461
H         3.71656451913918   16.79397667722328    6.77660222761824

