98
CSD_code = WEVNUJ | q = 1 | S = 0 | Stoichiometry = C37H51N6Si3Zn(1+) | MND = 4
Zn       10.07551390503448   -1.47632935927788   12.30119904987297
Si        8.98788126262581   -0.57880011345319    9.65837147376090
Si        7.12037776202527   -1.79914008941001   11.98535080312227
Si        8.51343225473135    1.06832728627882   12.38150976210273
N        11.44682233941087   -1.05945141868538   10.91840935239177
N        11.86028815864045   -0.47043861463547    8.83426245908849
N         9.41782387232844   -3.35505009059756   12.36604738680356
N         7.68421338592349   -4.71721777715786   12.33880176921630
N        10.10347530489019   -0.51618799841334   14.04843341879033
N         9.39575280698691    1.19760877170255   15.24169043743648
C         8.43343260095729   -0.56411267317427   11.45329477976557
C         8.55493126024551   -2.17571490604778    8.70460110836553
H         9.12589617672496   -2.26593598515790    7.78522124846010
H         7.50624457336295   -2.18974189367384    8.43446289610788
H         8.75893413857975   -3.05706907591877    9.30426708091936
C         8.45420959078059    0.94321594373633    8.63645425461644
H         8.22695053221183    0.67457753721570    7.61019223692131
H         9.20282413150710    1.72689218497579    8.61640065947393
H         7.55193829985666    1.36898123192657    9.06045005290546
C        10.90928613966989   -0.67646643253552    9.76793343851884
C        12.80244992604242   -1.09895310927328   10.74175113962363
C        13.81357988794509   -1.42801158842863   11.63765250639852
H        13.57179389812614   -1.70309542323187   12.65349782199036
C        15.10938279688721   -1.37751251154054   11.17556410360454
H        15.92501427598273   -1.62540724547046   11.83681058490524
C        15.39412187480072   -1.00620441527662    9.85851693581961
H        16.42322175995337   -0.97739549696005    9.53564258599993
C        14.40126767087879   -0.67333844446284    8.96118291427493
H        14.65674190161573   -0.38645229341036    7.95440588085418
C        13.08635348708906   -0.72316795510255    9.41204820404115
C        11.60227840734917   -0.08700486556303    7.45945650213498
H        10.51474723682778   -0.01990339439147    7.36868153670827
C        12.09962360749869   -1.16321209417290    6.49586009290998
H        11.78144679301229   -0.92170372297835    5.48559486044921
H        11.68700962734213   -2.13267112406568    6.76652965667985
H        13.18248827640153   -1.23800325429515    6.50457670117573
C        12.20180515895851    1.28517609037204    7.15924176852910
H        11.91600428342603    1.59750419802266    6.15892557087494
H        13.28590510756225    1.26580907141440    7.21624820102857
H        11.83380139978146    2.02189415682979    7.86995122185771
C         6.40202112283546   -1.49590495273638   13.72949090372123
H         5.85964065281656   -2.36108933657443   14.09942759172766
H         5.70975026718453   -0.66294102532272   13.71957506550339
H         7.18706358229077   -1.27229372543488   14.44467427957444
C         5.68476988063162   -2.04227243080925   10.75073721037870
H         4.74578877722724   -2.22408671722095   11.26286534758013
H         5.84981111895844   -2.86002891907978   10.05889015455152
H         5.55569533356921   -1.14133768192633   10.16186919415286
C         8.10153473002933   -3.43939817231251   12.22852152436360
C         9.88924045641620   -4.62343238826828   12.56325600821171
C        11.19079257340627   -5.07638969884306   12.74812451521701
H        12.01496452630587   -4.37872722910224   12.74548220358006
C        11.37068003759815   -6.43022905094111   12.92084963524738
H        12.36387794466992   -6.82520994652823   13.06754663378190
C        10.28621995269250   -7.31191790323782   12.90689882863608
H        10.46960168125843   -8.36627433564797   13.04414281387077
C         8.99112543675460   -6.87635329951820   12.72015180632567
H         8.17908681401202   -7.58464198389884   12.70919833457721
C         8.79250312630162   -5.51047737416118   12.54767618494673
C         6.29918444309512   -5.14397602921404   12.28345842239313
H         5.71211202023216   -4.23118462992947   12.15085643409173
C         5.88216041611002   -5.79652214772291   13.60039343574764
H         4.81322665318667   -5.98987253566893   13.58784236247173
H         6.10508576827451   -5.13667954023503   14.43603062995764
H         6.39808250828229   -6.73796268736928   13.76092640147264
C         6.06205622751215   -6.05530705607212   11.08109505900809
H         5.00380415251201   -6.28678654641723   11.00137747832472
H         6.61133842571131   -6.98717771903443   11.17512349572598
H         6.37797893755609   -5.56147363936279   10.16474771189759
C         9.73314047261731    2.34571336827328   11.65552610523646
H         9.95683243943495    3.13688698367262   12.36540161937828
H         9.32035690035314    2.81445736599536   10.77068795824585
H        10.67306500609819    1.87780940259170   11.38050511613717
C         6.82328067979120    1.90609158219654   12.67434967536728
H         6.90738682616395    2.98776708744872   12.67022456883783
H         6.35303784572079    1.61226769913721   13.60542890426272
H         6.14475903361860    1.63742290762094   11.87259037549009
C         9.36827697564827    0.58788996082097   14.03927054383397
C        10.62347439991582   -0.64916071164400   15.30621160723646
C        11.44116771122738   -1.64048827076013   15.83720481529625
H        11.76043895631390   -2.46903983644488   15.22280150199977
C        11.80518475423846   -1.51903836101475   17.15927507414067
H        12.43821099776286   -2.26602610285732   17.61230317431194
C        11.36580197734757   -0.44257841959226   17.93501277200351
H        11.67113042607812   -0.38536534683472   18.96827546674922
C        10.55193005181789    0.54534364839025   17.42172246612490
H        10.22600014516477    1.35775611714852   18.05014360443148
C        10.17875638274675    0.43898385274021   16.08600348387315
C         8.73119614204140    2.44889686640004   15.55172183123926
H         8.26065254095116    2.77374632146669   14.62007838043546
C         7.64260927065551    2.23363274942423   16.60127870920992
H         7.09282518342320    3.15803318546937   16.75304504909111
H         8.06525445634603    1.92499100682686   17.55273885378672
H         6.94556409456887    1.46665007258499   16.27044616450316
C         9.74423172686686    3.51222704485819   15.97201848138889
H         9.24394793998331    4.47172140885554   16.06824646093639
H        10.52774065495345    3.60406712850847   15.22313865164786
H        10.20668256673698    3.27119688557024   16.92392645927448

