114
CSD_code = WEVQEW | q = 0 | S = 0 | Stoichiometry = C41H63B2Cl2FeN5 | MND = 5
Fe        2.79195806120526    7.50256537684897    5.05851227275662
Cl        3.84327353971675    7.42544773567226    6.93630613712886
Cl        1.81371579950873    8.11416325055707    3.25510839943564
N         0.08688647384898    8.17562444775445    6.39891304759846
N         1.03499191859802    7.37096077348306    5.92906919680577
N         2.58862244567980    5.68668978194604    5.00908921337270
N         4.48752689835729    7.03579679096819    4.07893888454114
N         5.58711436609471    7.60493370404988    3.58664755168281
C        -0.93023310278307    7.45862996546012    6.94683556821575
C        -0.60380406564797    6.12480691541869    6.78696387635028
H        -1.16832094641697    5.26936914905968    7.09047179680349
C         0.63571092949676    6.10871924458045    6.13452143910489
C         1.52337419481380    5.10634332286160    5.60828137696457
C         1.37850079273866    3.72659578789424    5.65433660642255
H         0.51695284143066    3.29550000030472    6.13808095619179
C         2.35568340842489    2.92900196108840    5.07629804802441
H         2.26302004349114    1.85432258524432    5.09763692890262
C         3.45937616295531    3.52396601709837    4.48206124071734
H         4.24360515266140    2.93188950714820    4.03887935358839
C         3.55191669753294    4.90936722763159    4.46963837053886
C         4.62994435352156    5.70960426769689    3.95112247689978
C         5.87008672337433    5.43642063803255    3.36273377705178
H         6.26332651333330    4.46694535772585    3.14440503571106
C         6.46400986458416    6.66495453540050    3.14229525299211
C        -2.15901281652863    8.02764996877239    7.60924598192265
C        -1.76921468637408    9.01781505818538    8.71570403654247
H        -1.30538613747403    9.91622053695009    8.32339490026658
H        -1.07308605311503    8.54872494752967    9.40750109914758
H        -2.65688826952570    9.31271745192674    9.27113095342479
C        -3.07419867466746    8.69247588127917    6.57038793444146
H        -2.61359662326171    9.55858101516151    6.10465405323948
H        -3.99572934201098    9.01730196525415    7.04841666748951
H        -3.32507762095090    7.98195005130016    5.78593319585759
C        -2.94749980330432    6.88440457721118    8.26218746203028
H        -3.81850845050735    7.28682740131683    8.77441173776470
H        -2.33468737870707    6.36021534173053    8.99098208257842
H        -3.29332122597270    6.17498146806163    7.51519462570240
C         7.84647794360384    6.91395559754735    2.59421918384332
C         8.46914406920892    5.57431619330928    2.17927441326324
H         7.86773726946994    5.08953695715130    1.41452366300056
H         8.56281049826105    4.90779709400717    3.03235920582418
H         9.46353218995976    5.74525554597489    1.77326128845517
C         8.73726759967547    7.52891851621106    3.68401029806338
H         9.75352921615224    7.63423977546997    3.31035979813416
H         8.75618563514705    6.88423118450573    4.55991072446703
H         8.38910563997456    8.50921351305001    3.99649014835500
C         7.80546892699339    7.81511301188688    1.35502470728435
H         8.79123031329281    7.85277375983180    0.89635051748461
H         7.51461860624509    8.82833902288229    1.60460070176419
H         7.10402281036609    7.41811382131817    0.62437006717013
C         0.26806148631674    9.58783641369111    6.17231998930359
H        -0.68388557942587   10.09654079179932    6.30014351284666
H         0.57324090046655    9.69198993933413    5.12400217158689
C         1.35338723573139   10.18161548347646    7.09109629569876
H         1.65220265453235    9.42338418292749    7.81632331535827
H         0.94828231418362   11.03265825924959    7.64097223674644
C         2.59810516913648   10.62946017544123    6.32301186491516
H         2.30902380381407   11.38237604721065    5.58187860674408
H         2.97034447678524    9.76683761041355    5.73161653247434
C         3.77749298459873   11.31742532076011    8.78384627762378
H         2.81521371106041   11.12082888529621    9.26358040434914
C         4.27505325943049   12.70817160692028    9.24160422484186
H         3.48891088841786   13.20974201957029    9.81034893841131
H         5.13437864364867   12.60878337717313    9.90589108572994
C         4.64916515760314   13.59620603361584    8.05566770102663
H         3.74368822319772   13.80593464863336    7.47868645008343
H         5.04130287474650   14.54931991277646    8.42028386335829
C         5.67399116705368   12.94295037912799    7.12954843190267
H         6.62997820763299   12.86099559837909    7.64812595029255
H         5.83115799923035   13.60410853890918    6.27534580836873
C         5.20555778765316   11.55482721009825    6.63293550627406
H         5.27351864912238   11.53944771978774    5.54036315976553
C         6.12805567129744   10.42568597940778    7.15561697942642
H         7.14569330105920   10.58093065638328    6.78449784323196
H         5.76767533341652    9.46936858788659    6.77176507219723
C         6.14088359660972   10.34448225725629    8.67819078913228
H         6.73989700024494    9.48259708424502    8.98048384209816
H         6.61701486661225   11.23217087774176    9.09759994131133
C         4.73317096665885   10.18642312080354    9.24179819938922
H         4.77430076555888   10.16594421792694   10.33406557940101
H         4.33155759646969    9.23120564423847    8.89839189828926
C         5.60633081858701    9.04561865918025    3.55170549963782
H         6.63043841766520    9.41558217212210    3.56075768100974
H         5.11054137355320    9.37892265515506    4.47117651038519
C         4.83841873663846    9.60836455642668    2.35108005379613
H         3.84219711133380    9.16270286419471    2.33895273643574
H         5.34137602714454    9.34035965900000    1.42206120258188
C         4.71630064814709   11.13260788130983    2.46782625708519
H         4.16685680170206   11.36001589285148    3.38440747980257
H         4.06686853946605   11.46515686768143    1.65024439292178
C         6.30628958303878   13.32075229162545    3.13107662806425
H         5.55632517993317   13.54130988474740    3.89996748711155
C         6.25114824478264   14.49540938706452    2.13084342498362
H         5.20955783756946   14.59485564863692    1.81288922879729
H         6.52708338119712   15.42339000714425    2.63934342276802
C         7.12712853108145   14.33097424799387    0.88733408631682
H         6.79186991163682   15.05027694392266    0.13373681559586
H         8.15663173891825   14.59394918898216    1.12089374292902
C         7.07934127529561   12.93327003605337    0.26910987656307
H         7.87997684814812   12.84750038554993   -0.47103165222585
H         6.13043918407433   12.81639038710759   -0.26184276592132
C         7.18520837732213   11.76460987114812    1.27566251205864
H         7.09161012423324   10.85152257066291    0.67610562418884
C         8.55261026095302   11.68766092192909    1.98324365588889
H         9.35145692679750   11.65638508698308    1.23679487516588
H         8.58610708555774   10.73971749892853    2.52842431468861
C         8.84281240879538   12.81904920653269    2.97192674948458
H         9.19112908574126   13.69939031891704    2.43623228063483
H         9.67112115248329   12.50645650319416    3.61559986557441
C         7.65762288615852   13.19161993511610    3.86313429129937
H         7.53713188433569   12.41946679177447    4.62784349706117
H         7.88790105117501   14.12751822604347    4.37976309295955
B         3.78291958068283   11.18265316106866    7.21148472385523
B         6.03216517046415   11.99000370858893    2.32930368108521

