75
CSD_code = WEWCIM | q = 0 | S = 0 | Stoichiometry = C32H30N4O8Zn | MND = 6
C         2.38129940003531    8.10777830699298    7.88583729541238
C         1.05498904789320    8.08679723244125    7.46289572388362
H         0.34791843698878    7.43520997558086    7.94938739082378
C         0.66154351889232    8.90504113420987    6.41970865494207
H        -0.36723908462750    8.88800648299387    6.08973942434525
C         1.57188613927141    9.73901491995987    5.79237990944170
H         1.25453856895454   10.37544393640389    4.97963670834618
C         2.89252726601675    9.75022637560409    6.21101603841585
H         3.60884779158916   10.39554083023711    5.72405191323635
C         3.30105208646646    8.93978188702125    7.25210401922784
H         4.32533899758062    8.92878134124284    7.58794939856390
C         2.10130419683651    6.56163405873190    9.82521446758719
C         3.05292219589283    5.85476255764314   10.62941727580820
C         4.32277403708622    6.24604537690882   10.08847787062236
C         5.69749485520971    5.81690228808920   10.45157595518696
H         6.38602000313551    6.20554426069379    9.70593423884319
H         5.76547546627311    4.73158861754851   10.47939735137814
H         5.97495389102953    6.20399251396186   11.42950046552219
C         1.24815238124283    4.08106739524631    7.52191326417746
H         1.74059969064864    3.28096225201348    6.96197805161726
H         1.80535823433556    5.00628278113887    7.38857805215519
H         0.23205744895635    4.22739898252600    7.15091837763835
C         2.59775690206690    4.93226749648540   11.59061587517980
C         3.48195908735029    4.23883571517417   12.52924551883788
C         3.18487125269583    3.11163971656783   13.26210346111363
H         2.27150540033142    2.55654874054300   13.20955670509240
C         4.31596957923419    2.84647399058308   14.05722823451813
H         4.44737881815155    2.04145876214146   14.75067136102019
C         5.21285811179366    3.83270047920595   13.76509390652953
H         6.19864956440078    4.03492954474259   14.13656462010387
H         0.81335965590197    2.93777036685614    9.04564254941156
N         2.82645631549016    7.28813993631814    8.92716886934446
N         4.16412114883375    7.07957304009483    9.10094614420383
O         0.84287869402439    6.59566823802920    9.91262334599750
O         1.37323080476883    4.64721277010754   11.71394015755749
O         4.72033560397331    4.67172244666823   12.84860793879351
O         1.25605719054964    3.78537522542708    8.91023551567237
Zn        0.00005742354208    4.92152126636216   10.33138840355872
C        -2.38178654230333    1.73651342858061   12.77764420845451
C        -1.05521635744048    1.75661924571539   13.19982281595412
H        -0.34787374161953    2.40733330918558   12.71256990803296
C        -0.66183609731119    0.93866252603833   14.24325552175678
H         0.36716635518682    0.95503156833783   14.57256562589185
C        -1.57249874249237    0.10581828613891   14.87161176013477
H        -1.25519616657345   -0.53040476298132   15.68453196377051
C        -2.89339291309111    0.09548479248139   14.45375259798656
H        -3.60996706673654   -0.54893160728542   14.94153305599258
C        -3.30185656517688    0.90565270427280   13.41242136761665
H        -4.32633823161113    0.91729269293747   13.07719211289252
C        -2.10151312399668    3.28197441547828   10.83777855689500
C        -3.05297886842380    3.98888042823516   10.03342560003590
C        -4.32291012285717    3.59813779114425   10.57457443042963
C        -5.69753370503569    4.02760454119668   10.21147069747586
H        -6.38612997009307    3.63932465422849   10.95723426737548
H        -5.76519130726565    5.11293462639836   10.18342987862633
H        -5.97517678659427    3.64039773566373    9.23364416278017
C        -1.24709778747562    5.76336274644320   13.14085976149509
H        -1.73987865585892    6.56367659700561   13.70030648358846
H        -1.80361687070450    4.83776546088620   13.27521919006723
H        -0.23058664317999    5.61802577288090   13.51153877773305
C        -2.59755869239882    4.91088390833598    9.07188084121872
C        -3.48164625150481    5.60433287670676    8.13314681018871
C        -3.18444274644813    6.73135959426491    7.40007488003702
H        -2.27095117391492    7.28627134882193    7.45235756155868
C        -4.31557186099572    6.99657354452547    6.60501306600053
H        -4.44691556064764    7.80149412089867    5.91144911835328
C        -5.21264269488425    6.01061363440478    6.89748864509804
H        -6.19853191256244    5.80851775029362    6.52620852900801
H        -0.81411891424493    6.90573586022718   11.61584491141545
N        -2.82681710680223    2.55590671527436   11.73606973738721
N        -4.16442781449833    2.76483233328810   11.56232232649778
O        -0.84311037994132    3.24761782004827   10.75024036238316
O        -1.37295781657608    5.19558120385405    8.94844848012197
O        -4.72016870752703    5.17167093957368    7.81406682018123
O        -1.25598857921618    6.05781015401099   11.75226071145111

