70
CSD_code = WEWHUE | q = 0 | S = 0 | Stoichiometry = C31H24Br2Cl2N6NiO2S2 | MND = 4
Ni       10.96511909242444    7.31984076573146    4.87672199597838
Br       11.92368765654368   12.04158914749905    5.52381675019246
Br        8.83994136187784    2.93755240796473    4.36049316480664
Cl        7.57520060368176   -0.11588724068582    9.68041964100705
Cl       10.10515327434737   15.91248234079977    0.88783261586349
S        12.15507175423282    5.58929962090381    5.44156328482201
S        12.42147115694977    8.21870761081130    3.53095930759893
O         6.97541249274249    9.28927002832352    7.59718729453620
O         5.97877221095107    8.18331628074853    5.17150246732538
N        11.08747392137658    3.65829952323220    6.83562217228252
N         9.95164253158917    5.68826460326235    6.96317871375298
N         9.94804476182950    6.95943280774555    6.51879329213013
N         9.65373533516426    8.40737075533205    3.92424285457033
N        10.09291429880464    9.52365451992496    3.31456272972122
N        11.99895864336334   10.56578554009273    2.46918907046311
C        10.23694196416102    2.80964751416170    7.52895424835521
C         9.02081276972921    3.22802699431530    8.06527313749501
C         8.20573061734443    2.32841916121643    8.72397929054672
C         8.59944679664424    1.00656940895380    8.85571010422371
C         9.80791650525412    0.57602381646873    8.33018862916974
C        10.61974381525008    1.47493426589579    7.66976337995335
C        10.92268710336037    4.95479119853415    6.49562845645239
C         9.19592077540364    7.79210082774703    7.15672944735247
C         9.18750327432873    9.20137303409008    6.85018509903667
C        10.34560124498866    9.82132219519221    6.37838642407410
C        10.32322432368661   11.16620778233798    6.06230174819569
C         9.15376884574052   11.89786963407012    6.16814409939823
C         8.00371939218692   11.29590113553006    6.65355317245962
C         8.01116178211313    9.96170496327193    7.03887185537906
C         5.70859703031289    9.89182622808720    7.75453620509945
C         4.85072204037170    9.79845170951972    6.48705968377172
C         4.81510289291971    8.36364997725652    5.95512870179130
C         6.54231924911406    6.96300725862058    5.02488219024827
C         5.99968572200305    5.75784882109975    5.45128876015755
C         6.69448245375086    4.57156818244725    5.27451303340944
C         7.93477999388394    4.58287270112301    4.66180568751772
C         8.50010238010837    5.76701356593637    4.22715040896301
C         7.81071641217994    6.96667452888497    4.40446682152484
C         8.38009052923134    8.20571530230774    3.93071693778930
C        11.37880970808186    9.54408774988582    3.09669130960107
C        11.50546164611071   11.80805285104186    2.09770702550491
C        10.17213907804236   12.17501812871535    2.26837406934606
C         9.74500858553679   13.43475291297756    1.89678419140843
C        10.64414981260732   14.33603444179137    1.35011410085709
C        11.97322486014230   13.98469276770729    1.17144103105455
C        12.39887878882918   12.72651872377010    1.54477569257148
H        11.90655248685382    3.22319526109578    6.42983269230475
H        12.99521085321520   10.43426928365209    2.34670908155978
H         8.72691634134322    4.25846456940505    7.95453701301053
H         7.26276782513411    2.65238192975860    9.13589070263928
H        10.10686526473249   -0.45481340924367    8.43423887335186
H        11.55731434848833    1.14048334139364    7.25105399504455
H         8.55435582909080    7.42541346563769    7.95254737983615
H        11.27339064737595    9.24516525918997    6.30904112707903
H         9.14063621596657   12.93967598740525    5.88837089391316
H         7.10922328494310   11.89293853250066    6.73323185687325
H         5.23476557575923    9.31383839429951    8.55458039892317
H         5.79606336164233   10.93100922045678    8.08925610310460
H         3.84192774635214   10.13512976006237    6.72357736668098
H         5.26193394744893   10.43577249618897    5.70313181722893
H         3.92619094392251    8.20347352678497    5.33106106238870
H         4.79532176320843    7.66093627858878    6.79459099146573
H         5.02703864590867    5.72112325507644    5.91577017924101
H         6.26381650860559    3.63964887764601    5.60591498887356
H         9.46217523130918    5.77041425382220    3.70779227261726
H         7.71599746523204    8.97060700060260    3.53872254993585
H         9.48507476160130   11.46426626377061    2.69622767820102
H         8.71309934910894   13.71897041092685    2.03135321157583
H        12.66782876089301   14.69229171987176    0.74761854325128
H        13.43538335256223   12.45278782646306    1.41455892314632

