65
CSD_code = WEWJOZ | q = 0 | S = 0 | Stoichiometry = C26H32N2O4Pd | MND = 4
Pd        3.32512385453908   11.79608132869928   15.59578580292749
N         4.95209272905860   11.68690340134465   14.31290208528449
N         2.17588413051648   11.98518412009316   13.87700223730472
O         1.72302793108337   12.12363698861571   16.87000225416651
O         2.62929107872727   14.11111014709426   16.55587585292924
O         4.44502850525063   11.34166116130090   17.27393799498013
O         3.63748941510791    9.40812343905391   16.57607641451608
C         5.95876616532009   10.68236276136913   14.64599011746833
H         6.76251072432348   10.66682496890291   13.89722210025673
H         5.49141090917607    9.69857858058051   14.70458824797856
H         6.38539933456089   10.91081266582162   15.62178867092807
C         5.54169482532529   13.02528957084760   14.40717164138022
H         4.78842192900271   13.79307425615478   14.21585599696621
H         6.37281080434855   13.13905823417035   13.69597971345435
H         5.91183964878190   13.17381654490851   15.42452347673303
C         4.40385552271109   11.41800917888865   12.97950722102897
H         4.22173041058711   10.34145675436920   12.90943302762599
H         5.13138782893121   11.69085904894047   12.19736222113888
C         3.09175875229397   12.17165058090750   12.74437108327990
H         2.64098588602100   11.82997936956956   11.80239234008629
H         3.29750096468475   13.24126680538982   12.64803574043840
C         1.08697979215162   12.96570042536474   13.86867474318515
H         1.45580826470475   13.95974711673341   13.61409616872980
H         0.66210244125542   13.00145383272353   14.87462487676095
C         0.02779438534009   12.43059879905177   12.88959578495218
H         0.17604670836588   12.84942172768141   11.88990492149897
C        -1.41799283425544   12.74356589624672   13.34331555227036
H        -1.60897597900835   13.81799890179712   13.33371238613729
C        -2.32896612560265   11.98260626006285   12.41891580170385
C        -3.30022453202747   12.52319399702765   11.60056899064868
H        -3.46416419850978   13.59100874300142   11.58059095184718
C        -4.06523570012829   11.68004100184673   10.80738925609219
H        -4.82882401905004   12.09493014507036   10.16623308818078
C        -3.85711102325047   10.31232908774216   10.83517320589342
H        -4.45905145404366    9.66420573039629   10.21562673986531
C        -2.88026669888124    9.76694131365179   11.65595630520620
H        -2.71863904242025    8.69887431735929   11.67874686108998
C        -2.11911130381427   10.60368022576168   12.44695413722613
C        -1.01997106533949   10.18677478367742   13.38642799489888
H        -0.87671536719714    9.10545416990868   13.41507822375421
C        -1.36608962417788   10.76092401639060   14.73280070006394
C        -1.45338269944209   10.06095880764310   15.91980915900415
H        -1.26024321227185    8.99857391942637   15.94319768433310
C        -1.78658491523855   10.74020606259936   17.08155710984058
H        -1.85428737540345   10.20144515531423   18.01445965212501
C        -2.02729034272720   12.10248916463365   17.05332291259258
H        -2.29275015340456   12.62141690107454   17.96247441359533
C        -1.92530548713688   12.81016403479697   15.86533155087948
H        -2.09803108903129   13.87663873609327   15.84521074866086
C        -1.59421426198283   12.13517867586767   14.70728496876074
C         0.25672395552469   10.90485619529881   12.88956711752544
H         0.47939886598633   10.54333507440420   11.88098940609928
C         1.46157773238057   10.69662288912597   13.82644564373189
H         1.11168154340363   10.46797109805190   14.84308175103180
H         2.12210488860219    9.89233848774417   13.49686525432221
C         1.85742967753320   13.35472101476590   17.15811402132968
C         0.96822234458012   13.88688784829772   18.27293466978927
H         0.48285493806620   14.80288494088960   17.94631190694104
H         1.59351610599054   14.11663706034243   19.13225054020024
H         0.23072047906414   13.13885710233702   18.54677203864619
C         4.20622555869060   10.10286556736694   17.42782017057342
C         4.70276506020958    9.47967898942500   18.72534887440933
H         4.97436983914016    8.44175704616194   18.55608223539346
H         3.89310226273609    9.51633595292188   19.45061619162790
H         5.54669231021216   10.04258887679150   19.11356104771655

