87
CSD_code = WEWMOD | q = 1 | S = 0 | Stoichiometry = C35H45BrN5Ni(1+) | MND = 4
Ni       10.73954632249793    1.76333403162071    6.15599790203885
Br       10.72697558116806    3.92448481873796    6.27768174509777
N         8.59995624467691    2.25154922729206    3.92063579626465
C         9.38598140606315    1.56356758118918    4.74786736988556
N         9.10124128302372    0.22101867949141    4.54862415880510
C         8.10080816564526    0.08101580731594    3.59980038782576
C         7.43036631999198   -1.00242466879826    3.05013397236259
H         7.63485207766060   -2.02095694146588    3.33009500785449
C         6.45333370004185   -0.73595089914722    2.10952386373126
H         5.91649762155505   -1.55981184744252    1.66699746352792
C         6.14115294570729    0.56514865389627    1.72184983301137
H         5.36841861112548    0.72541072848272    0.98740310102308
C         6.79804402784808    1.65096399483761    2.26443092969359
H         6.54489621781705    2.65579406781180    1.96987269075770
C         7.78282807124096    1.39151536593971    3.20728804183476
N        10.70722812977583   -0.09699721694059    6.08648438813372
C         9.84336124186922   -0.70065756595074    5.26534394696378
C         9.77904172255943   -2.08600694344549    5.19811235244559
H         9.09988573406986   -2.58796939057790    4.53520451262722
C        10.62671019948781   -2.81498995523291    6.01738322268409
H        10.59489466218280   -3.89243319202813    5.98990668983838
C        11.51391258366044   -2.18000023081777    6.87226773319884
H        12.15867929788004   -2.75413575118780    7.51052330600970
C        11.53124875636241   -0.79164311789326    6.87596813662050
N        12.94402243839776    2.00800584813176    8.37177429862017
C        12.10567439898350    1.41142382584290    7.52488347616834
N        12.32351665762891    0.04678200951701    7.63959791256559
C        13.33393325271388   -0.20011956152410    8.55537025742408
C        13.95961339041835   -1.34734786162106    9.02218540322565
H        13.69683749726762   -2.33526611973170    8.68661782565572
C        14.97028028740014   -1.18809404577904    9.95139638429309
H        15.47378735305707   -2.06323348264192   10.33006246549340
C        15.35835207469755    0.06983985794116   10.40704196386091
H        16.15477918885993    0.14614669902580   11.12962082867111
C        14.74730335032716    1.21830940892661    9.94606455022911
H        15.06027342449429    2.18913978825547   10.29269124009211
C        13.72903432085874    1.06693566710975    9.01524480652883
C         8.49807578667235    3.68318728435483    3.75707302138166
H         8.25997342320379    3.88163496869627    2.71010209520124
H         9.45507861952115    4.14477879216945    3.99266164530329
C         7.40245829140844    4.25347140296703    4.66306983236951
H         7.73458116911494    4.19416054735293    5.70045704473059
H         6.49973142085685    3.64601587106752    4.55531026556137
C         7.07251066472255    5.70358620626388    4.31904130775104
H         6.77513102443797    5.77251465347193    3.26985168851769
H         6.21342908420227    6.00497629652473    4.92109840965573
C         8.22199388709525    6.67203350108751    4.58801065059721
H         9.06327582958188    6.45053900399294    3.93056532168786
H         8.56983466523210    6.54848028858641    5.61451711542056
C         7.78142540510270    8.11665032745313    4.36121183929031
H         7.45234247150419    8.23454554795671    3.32578604962022
H         6.92669419228811    8.33924634421717    5.00369774211804
C         8.89591686901885    9.11842717538304    4.64955211460698
H         9.19490450227438    9.03520209769252    5.69642753270166
H         9.76823337362289    8.87775287191131    4.03788056678362
C         8.45313268376389   10.55070235507525    4.35747366857766
H         8.19009982225550   10.63730665652854    3.30072493473579
H         7.55704186720228   10.77667870938105    4.93966018337935
C         9.53917093700537   11.56421098838367    4.69344756971791
H         9.21277851381162   12.57149911154148    4.44697523332473
H         9.77279306225949   11.53071485064403    5.75490046239469
H        10.44709492562935   11.35151528189012    4.13281645896259
C        13.13137619140721    3.42246759416988    8.59622954845304
H        13.45068794620493    3.55788308623117    9.63108143968013
H        12.18605603245548    3.94161456466870    8.45039485487349
C        14.18995114916790    3.98039954715459    7.64021819865346
H        13.79891304381191    3.94586341298297    6.62198003707073
H        15.08045907418030    3.34763391588235    7.68821736576431
C        14.57459001303111    5.41650816643648    7.98619472606629
H        14.91082823824256    5.46526328607690    9.02452170445883
H        15.42001781640558    5.69988730523681    7.35657988551897
C        13.44373609689435    6.41857681365330    7.76686580557659
H        13.06197793425871    6.32005042624963    6.74985409524802
H        12.61590282433098    6.20871566653474    8.44451158833592
C        13.92448482232317    7.84909086469959    7.99944088098243
H        14.28069860721832    7.94793757177425    9.02769337885995
H        14.76814678111888    8.06027616175334    7.33866144119648
C        12.82359679913671    8.87538735852125    7.74807388807706
H        11.96273298891408    8.64579826546126    8.37967756804339
H        12.49616601663858    8.80574951670223    6.70871636344150
C        13.29903298286758   10.29733034310889    8.03812364417748
H        14.18370155306132   10.51229829577717    7.43461524392241
H        13.59002828044063   10.37296749814000    9.08829460935684
C        12.22070130512137   11.32912899988225    7.73490047761605
H        12.57033438109703   12.33094204108959    7.97166002370843
H        11.95562901172707   11.29905884953494    6.68078662616490
H        11.32617905913828   11.13039204454168    8.32154588529557

