79
CSD_code = WEWMIX | q = 1 | S = 0 | Stoichiometry = C31H37ClN5NiO4(1+) | MND = 4
Ni       10.28526940743469   10.21283515595421    8.84132671127575
Cl       10.83271162454157   10.05424944668129   10.76031212936155
N         8.15410964410119    8.12105383858366    9.69766250085007
C         8.81266634567097    8.95068092968777    8.89005347739270
N         8.17650083706164    8.89957221389098    7.65763262010291
C         7.09420554228481    8.03732592430542    7.72338285865556
C         6.12195003220442    7.63707629789485    6.81074315496591
H         6.10248161649411    8.00730168667789    5.80234337965191
C         5.15712638967399    6.74231479763783    7.23885276493020
O         4.15748832788351    6.26604909743369    6.47611104498434
C         4.05059681807244    6.68256469069758    5.13459552779145
H         3.89290843682159    7.76323122325387    5.06099225261298
H         3.17869432108792    6.16588380003585    4.73881406623443
H         4.93324661455648    6.39611636667616    4.55405034774642
C         5.15599028819541    6.24327039660579    8.58174002689167
O         4.15866812283071    5.38408952833593    8.85263581456444
C         4.06808989450940    4.82788995993729   10.14549791597797
H         4.95907929452609    4.24291020829977   10.39260576709766
H         3.20189636391627    4.17018208119131   10.11899400652010
H         3.91189723543350    5.60099444456564   10.90380816689132
C         6.12206939459230    6.65102108524629    9.48012943389288
H         6.12967019221532    6.29399733479725   10.49503946008994
C         7.08707973221960    7.55017558603533    9.03401319320741
N         9.78134380180523   10.35807409128691    7.07205544627650
C         8.72599129834395    9.65844740068473    6.63963830958735
C         8.32085433628493    9.74276144732351    5.31387502352457
H         7.48204869864965    9.18371297659965    4.94385274996890
C         9.03810551307429   10.57436104153760    4.46737564776014
H         8.74292620092810   10.66051226252908    3.43374354900811
C        10.12858322516414   11.29690869823990    4.92710897921051
H        10.67202829492833   11.94210404975863    4.26270631668313
C        10.48315232045836   11.15986736711277    6.26291314436807
N        12.64271160598138   12.23436358357545    8.75791328688991
C        11.61939224129210   11.51383282051495    8.30187025380313
N        11.51858568873973   11.77614665380358    6.94278345711382
C        12.51673079396269   12.65684939541016    6.55937817924818
C        12.88704638817850   13.22610611505251    5.34404920835414
H        12.35684229072877   13.01639771259051    4.43345980019234
C        13.97871738564257   14.07622957405544    5.32983763276862
O        14.45464905503058   14.69778577082201    4.23664775293945
C        13.81890569556252   14.49922641045671    2.99526039424346
H        13.85614226516286   13.44919786133503    2.68835258588236
H        14.37941984928712   15.10047743287033    2.28245105972455
H        12.77976106931374   14.84254281285290    3.01742515521840
C        14.70897286880986   14.36118462058156    6.52896940443417
O        15.74663299056227   15.19842260483887    6.36002293093515
C        16.53350505684777   15.54572904273718    7.47773187941691
H        15.94096180991230   16.06135107079907    8.23940494569978
H        17.29670533577523   16.22131076081959    7.09734280162143
H        17.01507941193824   14.66686884577495    7.91686233451126
C        14.33420568954036   13.78919505432128    7.72863069973641
H        14.87670642221435   13.98569887399124    8.63672905443585
C        13.23261734182252   12.93757830904018    7.72716431450985
C         8.44508775277751    7.87455048398493   11.08961791566265
H         9.51542394846066    8.01460538051653   11.25227807681173
H         8.18059051938934    6.84013197003710   11.31730163946037
C         7.66979244287820    8.84002716715882   11.98857760552766
H         6.59669425573043    8.72897491954502   11.81465276196132
H         7.95505845761990    9.86077574958412   11.72629876242103
C         7.98687604583267    8.59177055974309   13.46030043704474
H         7.72273136411890    7.56522981052731   13.72369731015253
H         9.05973026631031    8.71368686745059   13.61540385077076
C         7.23004665926242    9.55831613459352   14.36183987747215
H         7.50146728106534   10.58510645671906   14.12998181586910
H         7.46810483824780    9.36824632494012   15.40463742132494
H         6.15582257805074    9.44823895502483   14.23050127795602
C        13.13147206877733   12.25987134519102   10.11570492445449
H        12.29775076658219   12.05504150960612   10.78997733581442
H        13.52071334463143   13.25904657737899   10.32089197583353
C        14.21856077242476   11.20394090211612   10.32659595106644
H        13.79518776518214   10.22264725836103   10.10332357093593
H        15.04912822362707   11.38294722316519    9.63945495741453
C        14.72205983237235   11.21829270210429   11.76695149896403
H        13.88107951314014   11.03185008286757   12.43623468970365
H        15.12853928158217   12.20420610690185   12.00301099729191
C        15.79404942740968   10.15986023935307   11.99126318306940
H        15.39845586421699    9.16897287320954   11.78293939868356
H        16.13745931097318   10.18182935037121   13.02171112019537
H        16.64939599706777   10.33260229381137   11.34175872436271

