31
CSD_code = WEWQOH | q = 0 | S = 0 | Stoichiometry = C8H12Cl4FeN6 | MND = 6
Fe       -1.80693251941798    1.76379838397736    3.18588353697760
Cl       -0.13153902798925    2.85581417660503    2.29469435546441
Cl       -0.77144735041200   -0.14167431838428    2.88375824073395
N        -1.00040394333314    1.90871610983098    4.89972921080243
N         2.21433999243547    1.24807537784507    6.49426029416485
N         0.13547399580050    1.78857466417701    7.42937837680341
C        -1.17709215433407    2.16604854070187    7.25942329759894
H        -1.73790312270144    2.40007892560944    8.14709496497349
C         0.30235813804172    1.60212916546652    5.08112068848103
H         0.88038334527203    1.40281033116965    4.19263198867122
C        -1.71222771560528    2.21628844507656    6.01703577564589
H        -2.74138379237466    2.50082744817573    5.86419813911912
C         0.89417508693278    1.52378147305403    6.32453741052409
H         2.70743838720011    0.90546501726324    5.68672316851883
H         0.54299707923140    1.74816639851997    8.35195114962561
H         2.53800608299325    0.91876771421072    7.38869443911801
Cl       -3.48249349937532    0.67192906446358    4.07700221795850
Cl       -2.84255522082498    3.66913825590028    3.48844117813845
N        -2.61362194488664    1.61873305287140    1.47222098804315
N        -5.82853705692471    2.27902423780695   -0.12239104483304
N        -3.74958436742781    1.73864397010454   -1.05740333385954
C        -2.43700840025013    1.36122306931351   -0.88745931661511
H        -1.87620917812511    1.12716944053855   -1.77513328663180
C        -3.91640019000602    1.92527039992640    1.29083848697190
H        -4.49441855811451    2.12461307324978    2.17934021519920
C        -1.90182805373042    1.31110149894395    0.35490587322476
H        -0.87264397277066    1.02666217003834    0.50771550691111
C        -4.50825595348067    2.00348716091814    0.04744404786516
H        -6.32148903566917    2.62163904767662    0.68530562186784
H        -4.15716112475077    1.77891189381295   -1.97995870147132
H        -6.15193592540233    2.60878581113607   -1.01648348999136

