47
CSD_code = WEWREW | q = 0 | S = 0 | Stoichiometry = C18H26BClHf | MND = 13
Hf        3.32271855189822    2.71109872726657    8.81043421295809
Cl        4.39136086245786    1.73635728475200   10.67648160053699
C         3.26323527095519    2.04152969033550    6.27291472059692
H         2.72728587940483    2.54058037714590    5.47918992921073
C         2.77554033323193    0.96332623538190    7.03882927022137
H         1.81549161535503    0.48556918623243    6.91008634951440
C         3.83153526608880    0.48621734074789    7.84613502364125
H         3.82073957816473   -0.41400366535476    8.44592727848478
C         4.97748968222248    1.27168306857461    7.56918401196762
H         5.97641860882353    1.07342577216572    7.93412451896160
C         4.62392834233605    2.22020630656890    6.58766200461559
H         5.31060709593477    2.87245598204890    6.06752776712754
C         3.21382509727875    5.49983405321009    9.96227786700657
H         2.68946609536089    5.93552096124145   10.79527870818177
C         4.45624473781763    4.87306380801172   10.02109446637941
H         5.07618100567036    4.77259907231373   10.89899427353487
C         4.82443408675349    4.47543910967753    8.70729930160514
H         5.83671080690535    4.22742214423914    8.39932568844026
C         3.75983873496607    4.90879600631918    7.83281342487533
H         3.81899562880245    4.97543165993602    6.75407088391146
C         2.78846139758940    5.53433264401531    8.62740998769424
H         1.89420985089192    6.01425315803742    8.26484418150253
C         0.81137730311733    1.21738551143116    9.89203809820441
H         1.66204662113671    0.54793101502227    9.64352649333448
C        -0.40027741500462    0.69030390659999    9.10191977346067
H        -0.12306815133327    0.66122838136930    8.04347417146500
H        -0.62951242299520   -0.33641363067382    9.40402048335322
C        -1.67501809852064    1.52922664035117    9.23178478117752
H        -2.36205777616427    1.23301108468157    8.43281714220222
H        -2.17659482063476    1.29225040087105   10.16688635676547
C        -1.45162504711013    3.04041306544092    9.13919850790073
H        -2.37228037239095    3.54406724433535    9.44801616543370
H        -1.27248130274069    3.30432427351563    8.09272831973523
C        -0.26405596763227    3.57040254286336    9.95757509774176
H        -0.20484106533827    4.64712599614479    9.74899289066195
C        -0.45832475074004    3.44078602164225   11.47727723907462
H         0.34831107634148    4.00400519091431   11.95446381018054
H        -1.40131850123410    3.90934357838172   11.77406926802326
C        -0.43832549402588    2.00869434770761   12.02242992470566
H        -1.41701524622452    1.55249030695830   11.88684897382026
H        -0.27394438176301    2.05753353888119   13.10292919185697
C         0.63702152404926    1.10000684035381   11.41823307651743
H         0.40511490105941    0.06582393733442   11.69130187246697
H         1.60148088188168    1.34576733943436   11.87418502643290
B         1.09434089844051    2.78451094096056    9.52545573568855
H         2.04256454887359    3.21825307859573   10.23678718963511
H         1.33486453020153    2.97128952406676    8.28553493914617

