119
CSD_code = WEWRUM | q = 0 | S = 0 | Stoichiometry = C64H32F15N4OP2Rh | MND = 4
Rh        3.53735609004688   -1.57169324484238   -1.37457019592651
P         1.75497690322017   -2.18292397580542   -0.13340253159779
P         3.24992014668917   -3.53926548972111   -2.43371095160472
F         5.58889395923510    2.82146730482630   -4.41349619990621
F         4.97898278395578    4.62430133863114   -6.33519436342393
F         2.43181132961349    4.80032546540483   -7.28838578966313
F         0.49733318676384    3.13987002719050   -6.30542041306854
F         1.12299868307288    1.31737664801008   -4.40176131606471
F         9.13089403757770   -1.18971502820797   -3.11316377497233
F        11.12652286859043   -2.32628931378784   -4.53854939556737
F        10.94692009043260   -4.94042572610794   -5.29803184663510
F         8.74451802953445   -6.40169870757987   -4.60312875565757
F         6.75641626325964   -5.26102334761369   -3.18580909240875
F         6.66217404806000   -1.26308850799965    4.72900481848430
F         7.00433867475866   -2.56031623373815    7.06653557198100
F         6.47340035234224   -5.23302726704415    7.24898661185458
F         5.55630930919158   -6.57819810161521    5.05214681250379
F         5.14078925500791   -5.27012551633270    2.73665607916489
C         3.37187934742995    1.05236250654860    0.17025715336054
C         2.96864606974139    2.40308924059103   -0.06952243789102
H         2.82355970601526    3.15227755197303    0.68379148646479
C         2.88009366477887    2.55139567804483   -1.42388748876812
H         2.64360613772914    3.44459955782527   -1.97011510663443
C         3.24468776982410    1.29032412340304   -2.00541457596920
C         3.66956702734091    1.01705832714190   -3.31421527605332
C         4.54474020971258   -0.04351930993800   -3.60767542315173
C         5.40543358118392   -0.17412531058566   -4.75077984286818
H         5.34895735400257    0.40596441621798   -5.65103127485551
C         6.31686894589485   -1.13144311464969   -4.44510925125528
H         7.13139449037727   -1.46059765095658   -5.06047345346003
C         6.00986311453298   -1.60616411589203   -3.11794011874890
C         6.77357135364274   -2.52429616430277   -2.36824976990345
C         6.71093701144416   -2.86859828489666   -1.01462674894957
C         7.40666923874542   -3.95267171772013   -0.41170907985812
H         8.06987631494016   -4.62168923220131   -0.92296319130215
C         7.07245483831101   -4.02730356050106    0.91088618153600
H         7.43062008919835   -4.74646707230284    1.62021295002028
C         6.17048789539131   -2.97694447187741    1.19511206104213
C         5.64658415975252   -2.51392408291696    2.39940502852471
C         4.86797478211412   -1.33975007207658    2.36777503198875
C         4.17398514353448   -0.59928706616828    3.33075955761046
H         4.11382936701693   -0.82880601265509    4.37557568514755
C         3.55142844777445    0.45945096186998    2.68825244679350
H         2.92478873754891    1.20070120383080    3.14308947913796
C         3.83319983634766    0.37176704120453    1.32557776773257
N         3.45384327716962    0.40526870449466   -0.99643918339293
N         4.89444569768860   -0.98311662665742   -2.69200927771663
N         5.96732810529120   -2.27789519795793    0.00840482873572
N         4.65830208360201   -0.72700985730421    1.14955193912703
C         5.51369972520810   -0.94486122048267    0.03859256259289
O         6.04761366525741   -0.05244264776730   -0.57569642918576
C         3.37245197702769    2.01457595650954   -4.36431599163149
C         4.34120861906850    2.87433175275058   -4.87787362211163
C         4.03354841772694    3.81158213921873   -5.85990308815402
C         2.73303732680254    3.90569560357565   -6.34697868766389
C         1.74868740586217    3.06065003652797   -5.84431099414584
C         2.07819295017445    2.13283618443157   -4.86342372247170
C         7.87429115406453   -3.18363141477484   -3.12796227933247
C         9.01375332785012   -2.46343930441913   -3.48400273427096
C        10.04924773247351   -3.04222705149489   -4.21240530678632
C         9.96221031214723   -4.37644796255438   -4.59871254052301
C         8.84051371850612   -5.11829320438177   -4.24425849764405
C         7.81843565510036   -4.51793742460392   -3.51635648160384
C         5.88601343202515   -3.22104147427548    3.65605140087540
C         6.35516313451359   -2.56172226827573    4.79593169292656
C         6.55255435570196   -3.22468902926069    6.00063395387410
C         6.28776690904739   -4.58815442623608    6.09634421034654
C         5.82585192305190   -5.27133160761041    4.97507341444331
C         5.62908749033682   -4.58917277054881    3.78244182416889
C         1.22765928511686   -3.88799526895419   -0.66653568940745
H         1.84919947058034   -4.63255041572192   -0.16088210738683
H         0.18150741655500   -4.06581348642158   -0.40149552815562
C         1.45771264995972   -3.96764051445975   -2.16956212855243
H         0.82975127068113   -3.23456234868293   -2.68411968928547
H         1.23753891028242   -4.96389946487544   -2.56396894695030
C         1.67432671344779   -2.32136965322437    1.68389452629718
C         1.04808451929346   -1.34439731883801    2.45221064119857
H         0.58386280655865   -0.49819618916528    1.96506575396095
C         1.00934953989435   -1.45775898913706    3.82960161268502
H         0.50531533310905   -0.70408117899370    4.41630485141846
C         1.61503590473276   -2.53382942613293    4.45681651748268
H         1.57447830613598   -2.62737390857474    5.53190835664031
C         2.28078072461934   -3.48456769610680    3.70150193379245
H         2.76233310065821   -4.31988452580880    4.18885440896462
C         2.32121382415394   -3.37448730121002    2.32380074413578
H         2.85453317962778   -4.11471336434961    1.74375964786555
C         0.19807454493942   -1.31932046625908   -0.53821382572356
C         0.19723088897739   -0.43621398266146   -1.61053053034778
H         1.12660190278826   -0.23802561411204   -2.13219252874438
C        -0.97483626814358    0.17964129335414   -2.01277385768382
H        -0.96334395467419    0.86112314062508   -2.84932743623056
C        -2.15700364390955   -0.08682133357108   -1.34394976651668
H        -3.07374854661337    0.39362519479773   -1.65182141959041
C        -2.16688828429406   -0.97729944214984   -0.28078046529886
H        -3.09133160238773   -1.19144163678688    0.23568973179016
C        -0.99837942227799   -1.59750251429982    0.11850513373041
H        -1.01112997059403   -2.29470666562482    0.94553032702289
C         3.36029895149831   -3.26946323435890   -4.23086697532728
C         4.32473999743589   -3.84990934388931   -5.04574958130464
H         4.98025020298511   -4.60742147462976   -4.64567170356831
C         4.44200051075229   -3.46134210614800   -6.36933628240884
H         5.18906926343810   -3.92324490057946   -6.99845581550480
C         3.61374139226785   -2.48037381422865   -6.88624836258498
H         3.71051253239370   -2.17945820213438   -7.91877700942614
C         2.67007923224311   -1.87507434223481   -6.07113266408491
H         2.03137250608387   -1.09796141483193   -6.46559428770089
C         2.55235424245871   -2.25852330797334   -4.74987121386985
H         1.83640590885357   -1.76229395187618   -4.10526822520898
C         3.92259456616915   -5.20111581391017   -2.11272335373146
C         4.50306554013274   -5.42304757880068   -0.87078710347980
H         4.58132505013455   -4.59924482687602   -0.17400474696037
C         4.96282555819733   -6.68065286421201   -0.52633810052590
H         5.40950095305327   -6.84234422977079    0.44284030671899
C         4.84258483526529   -7.72478235859270   -1.42714675617962
H         5.21092359769849   -8.70656389379925   -1.16950712274781
C         4.23823560515454   -7.51582760230288   -2.65717256513788
H         4.13072972886888   -8.33649027345098   -3.35129453001055
C         3.76695350567776   -6.26225989896109   -2.99867964910554
H         3.27729867861272   -6.10612207070541   -3.94996857260757

