73
CSD_code = WEWVEZ | q = -1 | S = 0 | Stoichiometry = C27H33N3O6P3Zn(1-) | MND = 6
Zn        7.20600350542168    4.16032802164481    3.88394313410311
P         4.84516847239199    2.44140729364652    3.46588474439771
O         5.52049272484885    3.74757845032292    3.07181602685941
O         3.48831927457852    2.55051791295120    4.05058157637394
N         6.67109379478319    2.63927333603155    5.43745267687851
C         5.74530634666339    3.16361219659320    6.43651093511527
C         7.93300407048589    2.20165907139238    6.01670400352687
C         6.05636680575610    1.61256897457187    4.61821446049701
C         4.88418224816540    1.34785674126711    2.00376848881836
C         3.75558055203546    0.61908639702172    1.66658261686392
C         3.76342668048113   -0.19792749065388    0.54950017795032
C         4.90371602293315   -0.28210910467487   -0.23254868059788
C         6.03184327411475    0.45166977163288    0.10106906839447
C         6.02576728318636    1.26718365272608    1.21841717002399
H         2.87899381791563    0.71215466287243    2.29111266155294
H         2.88224582362777   -0.76808921210860    0.28522803521135
H         4.91190451355493   -0.91938881655180   -1.10732663227472
H         6.91911110228941    0.38637184711496   -0.51366921452148
H         6.89497612927671    1.84812206205600    1.49009414160368
H         4.91478660003671    2.46353559003792    6.59151404973298
H         6.27280176606226    3.27268481397223    7.38874928814909
H         7.77644206274652    1.54084095559080    6.88470680961806
H         8.47801166693511    1.64622269720700    5.25558711583967
H         6.82471800457767    1.14777104883704    4.00033242675788
H         5.56302025443787    0.83728031574278    5.22306280051474
O         8.40617250072926    2.90686959463603    3.07189858320779
P         9.87498037164214    2.97503445006496    3.46606818739416
O        10.45877672360411    1.74546832885353    4.05108811369591
C         9.98709788648297    4.43850930761511    4.61819253827548
N         8.79072236966987    4.45764619276855    5.43758250695445
O         7.69118882434495    5.82634818226361    3.07155175364316
P         6.89790643959223    7.06437556062300    3.46577474724351
O         7.67104268624826    8.18474348663911    4.05048518026084
C         5.57459380460034    6.42990940323016    4.61821388389302
N         6.15611066701953    5.38425688602301    5.43770196017532
C         7.07298510086041    5.92381251372497    6.43661111344421
C         8.53904390437674    5.76915071281084    6.01691357664051
C         8.79972307605238    3.39403523036863    6.43672221360140
C         5.14619966555028    4.51084136426184    6.01749501849515
H         4.65174397823927    4.97719704203228    6.88539067236704
H         4.39296159048790    4.31652484515659    5.25656314010736
H         9.82137730930741    3.02515096044389    6.59170886817964
H         8.44165292845811    3.79688894646652    7.38902973901928
H         9.19000085982293    5.96416139094841    6.88473133924785
H         8.74750466053782    6.51858877237880    5.25571218177646
H         6.88170781914380    6.99305171408120    6.59131549879796
H         6.90307438059986    5.41246233084985    7.38892355697900
H         4.78789927896237    5.99683212378432    4.00040824782233
H         5.14977523840089    7.24490179601776    5.22286024876676
C         5.93122796366550    7.57761052581229    2.00381714495773
C         5.86438482158973    8.91946304423258    1.66687089237433
C         5.15258395979323    9.32138785730678    0.55007920604607
C         4.50924137290377    8.37614224194884   -0.23193577098987
C         4.58058022761792    7.03221211956718    0.10146604052390
C         5.29020410228578    6.62949882056708    1.21852921554217
H         5.35863341702869    5.58624114796770    1.49012089901262
H         4.07993862102857    6.29661918189691   -0.51310386515834
H         3.95271455609592    8.68790394045926   -1.10629861981506
H         5.09939757603417   10.36963147850741    0.28597977220652
H         6.38365480505972    9.63189234372098    2.29128445601151
H        10.00523869816628    5.33624211197797    4.00021046807021
H        10.90528228270529    4.39920384440764    5.22291663342724
C        10.80272806459710    3.55535555875064    2.00394733524387
C        11.99816776357478    2.94221911646976    1.66696955672710
C        12.70200121714808    3.35735687607307    0.54995516153599
C        12.20503828754207    4.38701070539990   -0.23221838527349
C        11.00551643476898    4.99726639331441    0.10119046734775
C        10.30206400609774    4.58435274452521    1.21843913776531
H         9.36432962217821    5.04672497422415    1.48993544289372
H        10.61863059083202    5.79830534188470   -0.51370359685989
H        12.75308264914457    4.71271716697267   -1.10686454394854
H        13.63639987128182    2.87925426839732    0.28587083318399
H        12.35563422681993    2.13651587033183    2.29161136779775

