44
CSD_code = WEWYUS | q = 1 | S = 0 | Stoichiometry = C11H24CoN4O4(1+) | MND = 6
Co        0.02754920017722    0.46120759094416    1.31383318964664
O         1.08948758750062    0.54614558503592   -0.20024041981158
O         1.37720704502336   -0.24201414316555   -2.24902089281475
O        -1.03653288857868    0.29687731599960    2.81970976200663
O        -1.38053487081461   -0.87374277553232    4.66710202853172
N        -1.06813275824049   -0.86007270038453    0.31122469633038
N         1.03514573810760   -1.10128170107846    2.01546204427531
N        -1.06072547195468    1.97325356020300    0.67050914640264
N         1.20103650853272    1.73934113758350    2.24847963460707
C         0.73227544496543   -0.11968550410580   -1.24335480791664
C        -0.68332758673720   -0.76455702418631   -1.11027771422156
C        -0.79892831137893   -2.19196029944912    0.88626351742919
C         0.68918608667545   -2.26818019346936    1.18132467719523
C         0.64940439996286   -1.27653573462470    3.42909964104605
C        -0.72504386438228   -0.58806640140034    3.70225402314462
C        -2.32289901047470    4.02773458815011    1.16922534022219
C        -1.17970546737798    3.11563487594023    1.60548412807003
C         0.13521703870162    3.90011913076115    1.66984723228215
C         1.39805253477893    3.03834874998287    1.56503834344533
C         2.59322133234783    3.76883656750906    2.17088840030138
H        -2.07476552432728   -0.71174473348849    0.39297387084703
H         2.04931857175438   -1.00010881614164    1.95849121393506
H        -2.01633505713482    1.65492032361467    0.50055365784420
H        -0.70506827985560    2.32986411653366   -0.22121565812406
H         2.13377550010673    1.33486493930288    2.34749591410330
H         0.85911995429401    1.92835394823360    3.19519903899954
H        -0.67851022979840   -1.74011063306784   -1.60160966490294
H        -1.37787989863321   -0.12083366802807   -1.65441962076439
H        -1.10612870020517   -2.98863578746436    0.20118754796295
H        -1.36934374083101   -2.29144823249310    1.81329237099465
H         1.25828308008253   -2.21000034859451    0.24999624218313
H         0.94324916217640   -3.20546306626362    1.68661617258310
H         1.37899213773885   -0.80169868512034    4.08872831141139
H         0.58254897108687   -2.33005877280387    3.70970815968464
H        -2.38981259967673    4.88221911650898    1.83589486113700
H        -3.27534133668735    3.50437737638485    1.20577935125574
H        -2.16180881330510    4.39921040193939    0.15910495328487
H        -1.42350174953770    2.68954715537323    2.58332138240949
H         0.15023392426471    4.45465927985690    2.60929510819448
H         0.16079277677656    4.63396229103190    0.86295212346317
H         1.62133393020421    2.80590088414185    0.51945818182497
H         2.71982058073667    4.73419432013207    1.69006822175194
H         3.51071282230641    3.20376619134666    2.02473635541492
H         2.44796183162959    3.93835977435241    3.23603993433436

