26
CSD_code = WEWYIG | q = 0 | S = 0 | Stoichiometry = C5H14Cl4N2Ti | MND = 6
Ti       -0.34850013728786   -0.75682536523275   -1.55999709743920
Cl        0.72522241322923    1.18045182467737   -2.11949769947283
Cl        1.29728095196128   -1.31329455065415   -0.24171283022182
Cl        0.24365782883470   -1.95439613649546   -3.27049784154301
Cl       -1.70857052863147   -2.29489018761571   -0.67664820301899
N        -1.26755818323099    0.55603365983381   -0.08567432547784
N        -2.07000313828536    0.06107515491785   -2.77881562138737
C        -1.21230521845008    0.16372953181208    1.32535208989717
C        -2.63269831491126    0.86560696400858   -0.51272597223563
C        -2.61690583387060    1.18769006055293   -2.00577398553651
C        -1.64393251376259    0.54790816402173   -4.09931735322934
C        -3.11611477345344   -0.94221220593155   -3.02101673243072
H        -0.69899993479424    1.40467449436475   -0.19157759130978
H        -0.17229611895295    0.00629277555066    1.61332554446787
H        -1.65402505805412    0.93655031035065    1.96614224187678
H        -1.75796530708412   -0.77166359299687    1.46154003071059
H        -3.25313518263825   -0.01379328544744   -0.30778894641522
H        -3.04135760091408    1.72243964075811    0.04508290424853
H        -3.63111635282333    1.43766014162075   -2.35065964022974
H        -1.96660804364976    2.05512781539772   -2.16722525557122
H        -2.49135286101523    0.99773348314238   -4.63200841301950
H        -1.25820542898957   -0.28772398442428   -4.68326958560394
H        -0.85299454787850    1.28946744353725   -3.99193409223449
H        -3.90369579620111   -0.52373495900434   -3.66117435004504
H        -3.55715977210161   -1.28125950438790   -2.08606407278481
H        -2.67236054704526   -1.80614769235598   -3.51826320199433

