79
CSD_code = WEXHOZ | q = 0 | S = 0 | Stoichiometry = C39H25N5NiO9 | MND = 6
Ni        3.23300351566557   11.42131632956855   13.29369492399208
N         4.32401607259063   12.41253904808433   18.45997418207949
N         1.73415621742987   11.63743173858843   12.11951785611590
N         1.44697567681320   11.08007799816313   14.76698866022874
N         4.62199685338630   11.16253857329989   14.57637957881237
N         3.15034053694325    9.39169111993763   13.25290191865347
O         3.70544524779373   13.29706076114006   13.03833650142524
O         3.52195804750788   15.32581175422195   12.20817727751428
O        -1.85505755779143   14.60464454038151   11.33443579050873
O        -3.00181886061569   14.92352863267998   13.21785014267910
H        -3.74136382752752   15.00840770680271   12.59613577121228
O         7.34199624719409   13.80964120734935   17.93008184021696
O         6.36021128770129   15.43446248851123   19.15528903514145
O         5.00664160762370   12.52560228782512   19.44762802232230
O         3.75368521799833   11.37016243606113   18.13780492958924
O         5.16058256968384   11.25343960581276   11.77028881211382
H         5.34506650374022   12.18016981890102   11.98556462796090
H         4.99243788197774   11.21875100452798   10.82540279800223
C         3.08775153605034   14.40633770125019   12.87703548531014
C         1.73503140700853   14.52474143036564   13.56782287790341
C         0.58910412785551   14.61940773849344   12.79942681896240
H         0.65920016222292   14.69369876193678   11.72377235712764
C        -0.66965071637193   14.63210591601092   13.39828211347129
C        -1.86089412062171   14.71884905052061   12.53847169090958
C        -0.77235973987292   14.54800455930051   14.78600291015750
H        -1.74704046217720   14.54882418657606   15.24854357025716
C         0.37073004778749   14.48279755915175   15.55439938131557
H         0.29631455599890   14.45204215456052   16.63178901351432
C         1.63288132316087   14.48633674514673   14.96251710056471
C         2.84085673000818   14.48670862711841   15.80072588146317
C         3.84399424171258   15.44315813653599   15.61515638792761
H         3.74127470391549   16.17625876401480   14.82915012938851
C         4.94548892763841   15.46960101936789   16.44895543165735
H         5.69426941181373   16.23819126471497   16.33194821307969
C         5.13295709372098   14.49902777772934   17.42660711037539
C         6.45266412207302   14.57162672312510   18.29848667583171
C         4.15244373860801   13.52092865809384   17.57508316529098
C         2.99253120072479   13.54848768539087   16.80470030211868
H         2.22267001796849   12.81552414251165   16.98921656475729
C         1.87030992248318   11.96205281059607   10.84622631255378
H         2.88031379796253   12.04947767893541   10.46945188055459
C         0.78829809045757   12.19904454742153    9.99849815016792
H         0.96771376666925   12.47454792479316    8.97182587982808
C        -0.48898275304539   12.07604660627026   10.49006650639648
H        -1.35102351167381   12.25240511126803    9.86675252778900
C        -0.66453621197358   11.74837707180025   11.84419576678783
C         0.48849202314622   11.55815465032625   12.63810750726748
C        -1.95346542041498   11.63885063674889   12.43819596563634
H        -2.81298147538518   11.78230357716351   11.80119986227051
C        -2.09810331913980   11.38591483207179   13.76156896449956
H        -3.07799171178006   11.32153284747782   14.21077067570474
C        -0.96186531458157   11.19783888965195   14.59538137551048
C         0.33329992811539   11.27213479641171   14.03741901605559
C        -1.05795444716201   10.92653004093553   15.97189311530672
H        -2.03168885274009   10.88060706835738   16.43769758343459
C         0.08902050007342   10.71197683822172   16.69345358655332
H         0.05707199560583   10.49002347766336   17.74823178393571
C         1.32833952053487   10.78623714673036   16.04251539270560
H         2.24314102152261   10.59927336825804   16.59112935869183
C         5.42813161485277   12.04181820703601   15.13200764427723
H         5.36719200427396   13.05965308891414   14.76937562069526
C         6.32815659598610   11.70651751276171   16.15176266391134
H         6.93820274890365   12.47926125986658   16.61558811644464
C         6.36720548671268   10.41428899442539   16.61727968859927
H         7.01951262199202   10.14336508347129   17.43337793285517
C         5.54438096123149    9.44675710911335   16.01726298790945
C         4.69476394481489    9.87614832880842   14.97785971500752
C         5.52110045739305    8.07448785615287   16.39942952385829
H         6.15743970609171    7.76714134944494   17.21528422971282
C         4.72608412492652    7.17793141640836   15.76421853923919
H         4.71256915025714    6.14061472906504   16.06359386471539
C         3.89572050849943    7.57231391608712   14.67612355050876
C         3.88391517060312    8.92855150965194   14.28606667091810
C         3.08386650466210    6.68707425873614   13.94928050344306
H         3.05971107797820    5.63992389259906   14.21192036069225
C         2.33854045345971    7.17608627637060   12.90173931765112
H         1.71114961409983    6.52425856808859   12.31448589600694
C         2.40576362126018    8.53441374164579   12.58352608205172
H         1.83509453606544    8.91962732636051   11.74879003010679

