91
CSD_code = WEXKIW | q = 0 | S = 0 | Stoichiometry = C42H42ClCuN2P2S | MND = 4
Cu        7.51963592137812    7.81271568568319   11.28670336855089
Cl        7.59080424693469    5.49406996757646   11.25923576905892
S         8.40852576665154    8.62293700930066   13.41035425378907
P         8.95389181493999    8.70797013823120    9.78922244243265
P         5.32110922024209    8.21619218734717   11.11582958555362
N         9.53087109498670    6.19622039176964   13.40554465567470
H         8.77822130759753    5.79325637875360   12.82083581546691
N        10.90235565195960    7.83970872282765   13.93083219515250
C         9.65146356194119    7.51531933707048   13.55263828364138
C        10.81038033891870    5.53300858598129   13.54248603153084
H        11.07771590310325    5.01649226095271   12.61766954093570
H        10.75813213853729    4.79568748345610   14.34949968895222
C        11.77709807616499    6.68567383784968   13.87189736565430
H        12.27971914682881    6.54541156240256   14.83409594590402
H        12.53947261146824    6.81892123957210   13.09529137315991
C        11.38897582820130    9.18437549307560   14.06500612741149
H        12.20601516163499    9.18580331340921   14.79190610348211
H        10.56466671744260    9.78838612519047   14.45379698443934
C        11.85373316046555    9.76717580093460   12.72735283571800
H        12.70164275943640    9.19246470537076   12.34702152707422
H        11.03512589330698    9.66728988070093   12.01107074958409
C        12.23786227526719   11.23296512031056   12.85914065619388
H        12.54453238380484   11.63086919897781   11.89491555892435
H        13.05991020228342   11.35446516304508   13.56150451081992
H        11.39046275673881   11.81366003788771   13.21462569873192
C        10.63997567108880    8.01762150803933    9.72311840912071
C        11.78095481897051    8.76150362969820    9.44345375441850
H        11.70224679841386    9.81547237464521    9.21796842286467
C        13.02221236347100    8.15053125207363    9.46335940850200
H        13.90766258908382    8.73096452211821    9.24620685168164
C        13.13421265905114    6.80144516096049    9.75791758061643
H        14.10642680314851    6.32993313068640    9.76822391439898
C        11.99927038294472    6.05897606346680   10.04400080417850
H        12.08641515678574    5.00571266075601   10.27121009619006
C        10.75619638989801    6.66442966586273   10.03859274068856
H         9.86449680871185    6.09969710576604   10.28471935862441
C         9.23284538906416   10.50816794804814    9.70710888519384
C         9.60704949948090   11.16478710749572    8.53778352264606
H         9.73836887359588   10.60253065511154    7.62296197723856
C         9.80131350920333   12.53357966256941    8.55005272237341
H        10.09334718764383   13.04191619581582    7.64207063620278
C         9.62192751637694   13.25448913367736    9.72083275306677
H         9.77464758421448   14.32399766333236    9.72229517733150
C         9.24139757985424   12.60590850305920   10.88362436956088
H         9.09236758823249   13.16677106257006   11.79457690453231
C         9.04505002614641   11.23629949568725   10.87823641360482
H         8.73569072444547   10.72166967214321   11.77926850853696
C         8.29892740799086    8.35216037923424    8.13175447318005
C         7.24699549801260    9.14189260480291    7.66803461236988
H         6.90777895144284    9.98256068203744    8.25995019169469
C         6.64550472311107    8.86006995717989    6.45834809988996
H         5.83979334004956    9.48402619335688    6.10061788052735
C         7.06632967512264    7.77002099412281    5.71290172789107
H         6.59083837007187    7.54552253760494    4.76960603167942
C         8.09036222592735    6.96545997832944    6.18307586558164
H         8.41174702585250    6.10869039641731    5.60854543201459
C         8.70672549113111    7.25059399281132    7.38836883226801
H         9.50427234681165    6.61841823852990    7.75235745918044
C         4.64852235487840    7.88073989481255    9.46088812004822
C         5.07193821038561    6.69837763657683    8.85678082071223
H         5.75436067273326    6.04784107310359    9.38688105810615
C         4.62267856774216    6.36267177298802    7.59524545509934
H         4.94978105529752    5.44274850412450    7.13354178437770
C         3.75641419605329    7.21034072109210    6.92269464161707
H         3.40253506269924    6.94933845894722    5.93586386542123
C         3.34764605934804    8.39488745304872    7.51243203460615
H         2.67523667967732    9.05711509399626    6.98523775608095
C         3.79202349894828    8.73606417746228    8.77763117056365
H         3.47154949173239    9.66125482487542    9.23654605983322
C         4.66668419589679    9.87169724105829   11.49553102436182
C         3.48853137131193   10.10517032646217   12.19441743938444
H         2.88943883118648    9.27253875283716   12.53591739367108
C         3.08894663932398   11.40524649832808   12.44907759730403
H         2.17188289998255   11.58715815095343   12.99070060724254
C         3.85811998928407   12.47270422272061   12.01465998665650
H         3.53993960302434   13.48457005340063   12.21911680758552
C         5.03971410283958   12.24337339451257   11.32702556772262
H         5.64791305055646   13.07300017276573   10.99615560329191
C         5.44398798235600   10.94722569840097   11.07480638312175
H         6.37491224406402   10.74930543384830   10.55681507759662
C         4.33109509152447    7.12643734521889   12.18049959834256
C         4.81921556077445    6.93712158399220   13.47143431383758
H         5.73158170710585    7.43967408800984   13.76829114065976
C         4.15051341674004    6.10519011329205   14.34841707517909
H         4.53180037502312    5.95557838813800   15.34801403727355
C         2.99826624820583    5.45297750593513   13.93847437222942
H         2.47812533994595    4.79584909035550   14.62038078090322
C         2.51714881298579    5.63221989236752   12.65170741998341
H         1.62275549656093    5.11619251273027   12.33248637655587
C         3.17986911283332    6.46532337626110   11.76790190309744
H         2.80929716319526    6.59800679141677   10.76040584175581

