44
CSD_code = WEXMIW | q = 0 | S = 0 | Stoichiometry = C19H15CrNO7S | MND = 6
Cr       17.05576676639454    7.08498057717185    8.17824951736360
S        18.95053310081181    9.66013422984712    8.05211077232102
N        17.64010903518393   11.51979785914027    5.47152669257916
H        17.48888382412467   12.37200879575980    4.94165454554675
O        16.46100478356243    4.24932902361035    9.03838069137775
C        16.69373267892362    5.33033785839453    8.71849701391629
O        15.49258127442282    8.71011564711116   10.17080860399081
C        16.06695868850979    7.99205913324964    9.48101763227415
O        18.77957093350300    6.65841069955746    5.75129538481538
C        15.52620297143844    6.88272105353945    7.12857884400593
C        18.12247542336695    6.69401372392435    6.69512821379772
O        19.42458430292894    6.75181226255181   10.00895898790711
C        18.55248824694302    6.98380577807350    9.29985028469435
O        19.32932068360629   13.31103375108310    4.55507975716319
C        17.43638802294583    9.02928792404318    7.54659845142652
C        16.51745349471796    9.76256680367946    6.77825561035998
H        15.52348556362619    9.32420445837800    6.79998827417604
O        21.12748918600404   12.16971501948010    5.27683126646565
O        14.58016072896202    6.59903354374236    6.53815453455779
C        16.56037572147237   10.87434239361475    5.95581934426503
C        19.00804585450236   11.28827208475976    5.81508117490240
H        19.35229612435081   10.31438764341904    5.43872847258677
C        19.21051601566897   11.33208628609857    7.33397094965675
H        18.51524920323250   12.03539788502500    7.79024669868042
H        20.23390739543621   11.59325798140758    7.59660778095206
C        19.83442740879600   12.38513174910710    5.13660851987575
C        22.02764618743696   13.14386961234907    4.72850919208328
H        22.94626495668944   12.59173274787489    4.52391485289335
H        21.60414315398397   13.52951508743233    3.79626635855310
C        22.27180029391114   14.27701337777519    5.71257842585135
H        22.99882134634683   14.96735057394509    5.29565563695623
H        22.65402095729853   13.88551448236488    6.65209680530539
H        21.34621488367407   14.81532321076959    5.90240328703986
C        15.27696791042553   11.37683206354484    5.42755503586652
C        15.15764401885378   11.77627523416788    4.09723712385779
H        16.00082942585253   11.68239788340518    3.42815187624694
C        13.95264429750229   12.25207755160429    3.61470221108295
H        13.86974698530010   12.54681843789021    2.57931068398262
C        12.85489737045855   12.34840608994178    4.45349510795305
H        11.91614775952367   12.72377053848198    4.07526522301736
C        12.96541162340232   11.95892718341355    5.77837296388595
H        12.11378448401211   12.03440081917976    6.43740062029225
C        14.16498525609625   11.47313968278177    6.26293852814856
H        14.25022165581038   11.18269125729332    7.29951804732647

