32
CSD_code = WEXNOD | q = 0 | S = 0 | Stoichiometry = C14H9ClO5S2W | MND = 9
W        -1.45957800066468    2.88164253599463   14.82535679273427
S         0.31213113482735    4.04676875799693   16.28369876325418
S         1.82370140856671    3.97958027471577   14.90254162124820
Cl        6.34234985561976    1.01527208461131   18.05105553919105
O         1.39022659030522    3.12598355334340   13.81259992914670
O         2.28299199833014    5.29429748246435   14.56989930717074
O        -3.29897708607676    4.55742191876876   16.71126655872586
O        -3.80081143643629    4.28054535325113   13.29486688912720
O        -0.47300355373510    5.19753891181476   12.95582620051148
C         3.14109484413597    3.12846358417487   15.77790679078934
C         3.56746055552389    1.88990176270305   15.34354432381624
H         3.12707704070441    1.46370226179943   14.45563735504768
C         4.56217937335837    1.23045501945984   16.04567796282723
H         4.91566119004056    0.26348365939339   15.72433629053058
C         5.10642991911648    1.83146036868580   17.17316105237594
C         4.67357128398895    3.07975779681883   17.60512250515335
H         5.11176732867851    3.52981644113324   18.48155390180705
C         3.67889681242082    3.73130708493342   16.89828994971805
H         3.31708744753191    4.70086590081010   17.20132494135715
C        -1.82910763200160    0.79938389517818   13.85312386931731
H        -2.36383513116154    0.55467654416605   12.94236389609224
C        -0.42079319447360    0.89185704615957   13.98544019991284
H         0.29572424467567    0.81092159946441   13.18155313350784
C        -0.11927268948992    1.00383949574294   15.35157287928765
H         0.87196765133748    0.98786747361542   15.78722369310663
C        -1.33829472661620    0.95546844629934   16.09093851049357
H        -1.41187999382418    0.86246612754490   17.16699813198816
C        -2.39383277788748    0.79706641327928   15.16951642638513
H        -3.42607132487288    0.57292947136284   15.40936782157958
C        -2.59183482497036    3.95836206335903   16.03791740621943
C        -2.94794668651762    3.71685416735020   13.82725613742164
C        -0.77147962043365    4.33434250360516   13.64146122016166

