49
CSD_code = WEXNUJ | q = 0 | S = 0 | Stoichiometry = C22H20Cl2N4Pt | MND = 4
Pt        6.48422915130666    3.26542766536816   10.93171145537771
Cl        5.45310965332634    2.84462624896649    8.91857853043081
Cl        7.36210294860045    5.27012071170804   10.22209857389163
C         3.64295370538623    2.86596032398301   14.03928902203708
C         4.44055177119303    3.87714673575947   14.58364838259977
C         4.31458390157318    4.17329630999025   15.93860610601292
H         4.91134114805235    4.97062316732992   16.35808740065311
C         3.43836927220252    3.48723425237635   16.75691949135668
H         3.36571149409046    3.73806213700647   17.80411016397669
C         2.64857438969576    2.48770049683834   16.21819945475757
H         1.95021102337330    1.94729315181506   16.83867976338450
C         2.75196299481341    2.19398050282587   14.87237860296526
H         2.11534070510801    1.42953293096237   14.45028302520916
C         3.68467156797838    2.43746129482477   12.58965811865881
H         2.69785825567915    2.06639191198545   12.29645668139512
H         3.95798196469662    3.25717775737162   11.91494004904487
N         4.65659885652229    1.38857399511097   12.37160499984198
C         5.78103034575790    1.55259532492425   11.65523270549104
N         6.42155818923541    0.37207631594038   11.67950115715682
C         5.69335461882674   -0.53861255397730   12.39962341678463
H         6.01018314125208   -1.55059689656813   12.54255001279697
C         4.58287640041004    0.10096967555797   12.83513237449482
H         3.76388848184118   -0.25679931936891   13.42350312296970
C         7.68635074330709    0.13248848396761   11.01974558445024
H         7.87053985744612    1.00297962617989   10.37927285041421
H         7.58525544454190   -0.74915634021316   10.37946591645155
C         9.59577712605345    0.90972168203948   12.55932183181947
C         8.79959996381576   -0.10304373217832   12.01576841997139
C         9.02761087981485   -1.41897332927826   12.41054944438189
H         8.43160336707099   -2.20750858703922   11.97370577123029
C        10.00338735903324   -1.74546154203722   13.33221433015464
H        10.15452944608396   -2.77467028353576   13.61977381155380
C        10.79057912965745   -0.74352229674611   13.87033791361374
H        11.56485793389854   -0.97925139285945   14.58429594868857
C        10.58619171843996    0.56428507189296   13.47541186729510
H        11.22002696635482    1.34089389536592   13.87908945737505
C         9.45194257455471    2.37721651187552   12.22361798041853
H        10.42770316428891    2.86375812057028   12.31655287599449
H         9.08112265287552    2.54252674465949   11.20525059462278
N         8.51918494032181    3.03865568761197   13.10946896414536
C         7.33015075067217    3.52139591322958   12.71248463972580
N         6.75430699090151    4.05449140636842   13.80273835336067
C         7.58704635756600    3.91957374537712   14.88280923462168
H         7.33540163464141    4.28281834381727   15.85727042260788
C         8.69750556361202    3.28039457411065   14.44659513792050
H         9.58145555720080    2.99004607193662   14.97497358605835
C         5.45047629076866    4.68076242593259   13.79545041073262
H         5.16870026247542    4.79538953072484   12.74219538718669
H         5.53894934368366    5.67794752749431   14.23734665391617

