61
CSD_code = WEXQEX | q = 0 | S = 0 | Stoichiometry = C28H18N8NiS6 | MND = 6
Ni        8.89902816845283    3.65052437689901   19.14976745267659
S         8.00882032774529    1.98244016342135   17.89081450914623
S         6.94068620603435    3.25043235274195   15.31905907434981
S         7.86825153611293    4.21039565715513   12.57448431046908
N         6.95647228568343    3.81564604090696   20.37381775853810
N         9.35573083800795    5.04778784652100   20.51686891896381
C         8.74894583563212    6.10223387727153   22.60912870588377
C         7.19929644830261    4.58696843459235   21.44918709373154
C         8.08351112694941    3.44087908990570   13.99911669570223
C         8.46092269252613    5.27402742630429   21.50173070512210
C        10.00777404447475    6.72115927913197   22.65336841874959
H        10.26623138030767    7.34313604000728   23.49700683827400
N         9.24875836060749    2.87273824736479   14.38559510910980
H        10.05184440105430    2.83021398369576   13.77452403792381
N         9.34731513175882    2.36593470645183   15.62143402368616
C         8.26290096501952    2.48038239502834   16.29594934864875
C         7.78757809633192    6.24220657703622   23.65176927663573
H         8.03970438539879    6.87428405381589   24.48933677879634
C         6.28940854774949    4.71671208514176   22.52005251476656
C         4.89213983085439    3.14951885963260   21.36683040983431
H         4.00142957454218    2.54641467678414   21.28939962369419
C         5.84485753441672    3.11542142253064   20.34205406666350
H         5.69641757750689    2.49898365340342   19.46500131650810
C         5.10524018396377    3.96353842484953   22.45189855932475
H         4.38508871016441    4.03060864294529   23.25512188861396
C         6.61336570673970    5.56838757281614   23.61505447070094
H         5.90240579899692    5.65483118395555   24.42370053385443
C        10.52999746395020    5.64214043885685   20.58529852671957
H        11.22921470776394    5.42720019769208   19.78819765392053
C        10.89638094630489    6.49117247339468   21.63194201610743
H        11.87867593676106    6.93559523448121   21.63582993581603
S         9.78929620252645    1.98246587607503   20.40874773265336
S        10.85724464346301    3.25050766832161   22.98054976575193
S         9.92951564889622    4.21037401679280   25.72509872362740
N        10.84155523291356    3.81567386222885   17.92567420358890
N         8.44229712376797    5.04780892818239   17.78262315209987
C         9.04906763375772    6.10222356388432   15.69034060882522
C        10.59872635375958    4.58698356638306   16.85029868476418
C         9.71436856660017    3.44081750418956   24.30047271743848
C         9.33709489254353    5.27403235941932   16.79774885035895
C         7.79024202859544    6.72115212997235   15.64610011989782
H         7.53177693311549    7.34311190202650   14.80245186946144
N         8.54915176491500    2.87266953828641   23.91391512320397
H         7.74601992202311    2.83016958626886   24.52491992207625
N         8.45066957555214    2.36588639899116   22.67806199749960
C         9.53512398654314    2.48033881157564   22.00361958568212
C        10.01043255957571    6.24219194929918   14.64769847400287
H         9.75830836816909    6.87427448746738   13.81013462417720
C        11.50861101031924    4.71671843199604   15.77942998869510
C        12.90588155707916    3.14953392310886   16.93266120410270
H        13.79658950360787    2.54642751059633   17.01009741152374
C        11.95316652655691    3.11544496903723   17.95743898089836
H        12.10162343217561    2.49904292041436   18.83451538296445
C        12.69277895139160    3.96354535963895   15.84758816186199
H        13.41291948313399    4.03059646868554   15.04435317873749
C        11.18464843555886    5.56838062015362   14.68441814520498
H        11.89561260104979    5.65483131475340   13.87577640454285
C         7.26803728118113    5.64217585185969   17.71419736949637
H         6.56883661094801    5.42728355765137   18.51132806337245
C         6.90164835035065    6.49119227607375   16.66754210161323
H         5.91936006980739    6.93562923190980   16.66365687895281

