123
CSD_code = WEXSID | q = 0 | S = 0 | Stoichiometry = C42H68FeN10Si2 | MND = 4
Fe       15.55217240445125   10.09233939670504   14.02391724388741
N        16.15061383009357   10.21439462326525   12.14555902505967
N        17.61026572354820   10.11853467788143   10.29626476630824
N        17.98509601042316    8.78728516318326   12.10308055259081
N        18.52984474631582    7.13839291053314   13.61234791709452
N        17.05673165230001    8.83595132744834   14.26058424289649
N        16.27386410955113   12.09411543720298   14.59493687616089
N        16.21685758101497   13.77308441029198   16.25333909020961
N        14.32134459593294   12.62165146685499   15.76343091244587
N        12.18451604534493   11.73609072867406   15.74798332990170
N        13.94770481551135   10.45144871436604   14.93039602574683
Si       17.25194322079198    8.42468800849800   15.94388428849419
Si       12.76781177045369    9.19104055832423   14.64541717022579
C        14.99880265109835   10.61353316984212   11.50801204075005
C        14.45393142328530    9.86362811501294   10.45211062908784
H        15.00198577144388    9.00583173169911   10.08866222376425
C        13.24251832855470   10.21270400060328    9.89345123182113
H        12.83666534221809    9.62009110395642    9.08582544809089
C        12.54107184853245   11.31281284890085   10.36307058787062
H        11.59282133734515   11.58226050648844    9.92264276198446
C        13.07300534671351   12.06808754721460   11.39733328660341
H        12.54016602990356   12.94002214724848   11.75136378502089
C        14.28329973099932   11.72969914434935   11.96904946441501
H        14.71389018159497   12.32929543550934   12.75608773974629
C        17.22795451663297    9.73861281033750   11.55063324073388
C        17.18859837954965   11.33490888150855    9.64346055634649
H        16.35804501977081   11.78292185341568   10.18471727515630
H        16.84577027051665   11.08219619197264    8.63047633640708
C        18.33656477504843   12.34564407666320    9.56335118657897
H        17.99760394001244   13.22372449006967    9.01072207372238
H        18.59672074647914   12.65668344115792   10.57562272052075
C        19.56062792045653   11.73033409846020    8.89374791941684
H        20.38740202196886   12.44310919992561    8.89867754260131
H        19.33011912216474   11.48920403071313    7.85253172208604
C        19.94984334798298   10.45678087981126    9.63706002473523
H        20.79827899680254    9.97053008985191    9.15276684407429
H        20.22628489041721   10.70170263297463   10.66307877962601
C        18.75641996010076    9.50454306598469    9.66383945794256
H        18.47470114388561    9.24490683536885    8.63477410629268
H        18.99498819624040    8.59907163403695   10.21848708313153
C        17.79123027747715    8.30492582133892   13.31231100826968
C        19.74479064446137    6.95939932834310   12.83769185151987
H        20.28355174882138    7.90740337588365   12.83247303330145
H        19.52023342858166    6.68817704152645   11.79433026062528
C        20.58696861186609    5.86064071148667   13.48042454504474
H        21.51176288527823    5.73239204211896   12.91521368710278
H        20.84439735409197    6.15947097832154   14.49724990193498
C        19.80026555020508    4.55403954721546   13.51636532968663
H        20.37536839354200    3.77770893801515   14.02506366197712
H        19.61052846014286    4.21705837687652   12.49424930186306
C        18.47033684763935    4.78146879898529   14.22900659433748
H        18.65599738314425    5.03167719857138   15.27446516888799
H        17.85836997001341    3.87804195251879   14.19387830201269
C        17.71981162825127    5.93265852126244   13.56689665281399
H        17.49523932264639    5.66232015560055   12.51964801413614
H        16.77683123105199    6.12547644623395   14.07620794260387
C        19.07941368877809    8.11609081126457   16.42603258626125
H        19.37469326082449    7.08784491238052   16.25800852281948
H        19.23777469851582    8.33978794173060   17.47678595128357
H        19.74823748241018    8.74533767976591   15.84787045932313
C        16.16212783535468    6.95842107369646   16.53133168272224
H        15.19197687091216    6.96373273711569   16.04368802941541
H        15.98833066479192    7.03956054769470   17.59991922361895
H        16.62172840478497    5.99202982115898   16.35527459066268
C        16.66900989027573    9.92952473525761   16.95351052862016
H        17.30414587508405   10.79022060818808   16.78490594895610
H        16.68600830070073    9.70653288039463   18.01501601235617
H        15.65649919887437   10.21183783550269   16.68588052783630
C        17.42555847973447   12.54882516124252   13.98116198240613
C        18.53779544042373   11.71107776576675   13.85168728330717
H        18.48177903931425   10.72286082112393   14.27711536249515
C        19.67292508055226   12.15071783984122   13.20300648964478
H        20.52957334602213   11.49523764497822   13.12651128493034
C        19.72743775209123   13.42543346976386   12.65810743398227
H        20.62062002353564   13.76882657035243   12.15660511624102
C        18.61867821638968   14.25237843055311   12.75354854594296
H        18.64521624476752   15.24037596807189   12.31449534934309
C        17.47909365109554   13.82348907737421   13.40375566741377
H        16.61229485807811   14.46584637206004   13.47280033773452
C        15.63533676047490   12.77733646506222   15.50661577322959
C        17.60578075117296   13.76472817463180   16.65119108470900
H        18.16892296161252   13.06138714400609   16.04092241774493
H        17.67104037272130   13.43930029853979   17.70240143590501
C        18.19933020359660   15.16712215909433   16.52815697229479
H        18.17062301110749   15.47198438964083   15.48112479277937
H        19.24179618651556   15.14935239186520   16.84972202658044
C        17.39165008084977   16.14419092847082   17.37751331834863
H        17.49646002078158   15.88020310843105   18.43296469498685
H        17.76740303616904   17.16079620161261   17.24674734202939
C        15.92037494934010   16.06852450279218   16.98060139103791
H        15.80693390813429   16.40238819465293   15.94762850922561
H        15.31891753593666   16.71844669956239   17.61869028609896
C        15.41415981103226   14.63059943019931   17.09548578027095
H        15.47410032890245   14.29998557359062   18.14304534638739
H        14.37886901229668   14.55491671605120   16.76725991864023
C        13.57921857495454   11.60631828854592   15.43706201264602
C        11.61273667988131   12.92862034187275   15.13812090561988
H        11.81106471439325   12.87481632163885   14.06555238704908
H        12.09195457597876   13.83871485751611   15.53312636019408
C        10.11030217605133   12.98912200196097   15.39519622611353
H         9.63088095589464   12.12980162936631   14.92432775198007
H         9.70377842738733   13.89607252719484   14.94354497482075
C         9.82977548543913   12.96667221972313   16.89407090762999
H        10.23583327722735   13.87042118180521   17.35511399811466
H         8.75372581045795   12.94764900292824   17.07848577920529
C        10.49768369822467   11.74104633034660   17.50843358948890
H        10.05282773520245   10.83700288345290   17.08880379466938
H        10.35449822687832   11.72705625189314   18.59046771535239
C        11.98894515931011   11.75585974708384   17.19130399618415
H        12.45363304525094   12.65096265403354   17.63657935415535
H        12.48131912536675   10.87526422919568   17.60879939575848
C        12.29090069538669    8.30939999856701   16.27695873780581
H        13.13229056358386    8.25272001699487   16.96084171893028
H        11.95876910736656    7.29574235534196   16.07653250800975
H        11.48263707433144    8.82151307847768   16.78623701480353
C        11.20149429633490    9.66821115144882   13.66293528985991
H        10.45415495621657   10.13365874263783   14.29344307925232
H        10.75847249816537    8.78381885191372   13.21480081949792
H        11.44173521999590   10.35861097947447   12.86036077522091
C        13.72749245909332    7.96246075578508   13.53979848455288
H        13.69523569413107    8.28133886625903   12.50276561011519
H        13.29818614078667    6.96758564208344   13.58831830841258
H        14.77460490999724    7.88786938830666   13.82705573124533

