76
CSD_code = WEXSOK | q = 0 | S = 0 | Stoichiometry = C27H43Cl2N2PPd | MND = 4
Pd        6.55968747113681    6.51503513712320    5.54707843814865
P         4.79326924446847    5.16025423582778    5.46103224081620
Cl        8.31651242601589    7.79726295544995    5.02123794008451
Cl        5.56376388632835    8.30982490837836    6.44534300517558
N         7.53252413291142    4.68822966907845    5.15111978947258
N         7.45935732865417    2.34807685904545    5.11035531121806
C         6.85536408303614    3.56765408177598    5.09759218860827
C         3.09184216427968    5.19288755218217    4.83462307476693
C         2.03416279168795    4.80628684530829    5.66762468306005
C         5.41717752275588    3.67053942540372    4.93263822782258
C         2.00506683695191    4.94361927143814    7.18940610883228
C         0.70141472675916    4.30470360968794    3.69883754156405
C         1.69184187585592    4.89664273750670    2.91978114594505
H         1.52101731336869    4.96359444703455    1.86089838284574
C         2.87720656604193    5.38035677876039    3.44631112889961
C         3.98556937614687    7.58590395925024    3.22445067084016
H         3.01844914990084    8.05571651065305    3.39090795649529
H         4.57848960398693    8.23403566487466    2.58220831878852
H         4.50130643163859    7.50952154775315    4.18740726491555
C         6.83024396014485    1.09766346254488    5.50033816200923
H         7.56675469685966    0.56541874750606    6.11523662589088
H         6.64186129461584    0.47740917536741    4.61309616000322
C         8.97662962239105    4.62887159904137    5.24060677561572
H         9.28200014961486    4.45769317771277    6.28367762320766
H         9.37663413431851    5.59410853231484    4.91757747184993
C         3.81425196784286    6.21178799525289    2.56173478680112
C         9.48237488468454    3.49816417892365    4.35224419860192
H         9.15013699548112    3.67987703728717    3.32829085190360
H        10.56978464732850    3.44476777103044    4.36436937261364
C        -0.51914706693974    3.70198462082422    3.02285744171902
C         0.86094926311383    4.35005491562984    5.06974739138573
H         0.06190932897023    4.00771976519832    5.70336233108801
C         8.88546261703757    2.20553374997980    4.87784788519293
H         9.03253051926617    1.38878120831143    4.15943122576188
H         9.38238325569166    1.91868316348140    5.81585291690002
C         5.54555021773257    1.24604683948550    6.30964343283732
H         5.65822118241028    2.08440732466794    7.00055377988896
H         5.40140375946554    0.34249305497830    6.90451457628926
C         4.33066610631472    1.46682825710729    5.41360403486874
H         4.05294920855073    0.53163261851143    4.92339801802813
H         3.48361808045630    1.79159050835682    6.01900115957192
C         4.63792435703436    2.52824512583277    4.35401112015647
H         3.70360766153182    2.89548732036139    3.92733494743332
H         5.22229365742862    2.07886676015907    3.54702703687967
C         3.20170001845766    6.46456796273918    1.17380300219821
H         3.13285755456394    5.54743969126240    0.59231177330597
H         3.84202772101470    7.15409226084292    0.62834879563001
H         2.21873401768955    6.92275243445011    1.25128896099068
C         5.20067243309207    5.58419938219848    2.33157715477378
H         5.90783371341908    5.85096109540922    3.13047588252513
H         5.61858080806199    5.96935298565624    1.40346018263372
H         5.13742646217259    4.50145969476455    2.25029673158221
C         3.26260889085188    5.54325988446219    7.81616154900978
H         4.09621226790631    4.83693438224982    7.80400434778590
H         3.06133257651299    5.77623745211613    8.86125023477405
H         3.55933447308012    6.47445652037225    7.32799835389503
C        -0.05360009043840    2.60792830002136    2.05127335507002
H         0.48100046024448    1.82858218988242    2.59098831528371
H         0.60715802157012    3.00844053684660    1.28763684978761
H        -0.91124117702759    2.15799877922792    1.55611811644374
C         1.74979151844609    3.58420912099834    7.85481808632664
H         2.57768873121092    2.90605084148704    7.65685505847898
H         0.83483936998200    3.12036338645883    7.49738624787306
H         1.66545948570491    3.71036944850917    8.93193918416325
C        -1.26698053657155    4.79957887158594    2.25346016194762
H        -2.16523488579078    4.38955437563833    1.79708482900703
H        -0.65069467872354    5.22447178911942    1.46625442637152
H        -1.55783915649127    5.60093413364960    2.92927592671095
C         0.85362619851956    5.91113043246894    7.52217835230009
H         0.78652676627952    6.05168126709226    8.59852413032781
H        -0.10607868549917    5.54422747395714    7.17121047026520
H         1.04067283233493    6.87782483454879    7.06069544679383
C        -1.49289294865060    3.06814792781317    4.02017641554091
H        -1.90947084560701    3.81516822339451    4.69176040047502
H        -1.00439442816031    2.29191098073925    4.60510518597954
H        -2.31847432154503    2.61105023236210    3.47876932664580

