127
CSD_code = WEXXEE | q = 0 | S = 0 | Stoichiometry = C36H76FeN10Si4 | MND = 4
Fe        7.26492069807045    6.88711361376051    3.80069829309820
N         5.42805918312412    7.06859703010147    3.17551150460369
N         3.15688909653701    7.12231887614807    3.74903102130678
N         4.63454575520703    6.31097840556775    5.24146983205117
N         5.52210052212308    5.03912304071006    6.93851405594924
N         6.88581031600605    5.60676932844550    5.13069591122336
Si        5.65907064095662    8.44291808145597    2.18784672960737
Si        7.94515265184751    4.37322639811939    5.75005827725642
C         4.46173683272175    6.82346825428403    4.02575438280252
C         2.60790464603906    7.08496004929444    2.41850653618552
H         2.00990514938467    6.16562774014987    2.30752591966018
H         3.41900995985270    7.05500079854271    1.69816362407518
C         1.69575995298703    8.28908696612355    2.19299270957410
H         2.28268278601331    9.20343896418948    2.28118306954941
H         1.26884160714767    8.24562886346366    1.18968186011341
C         0.58813620123522    8.28826560164676    3.24397301583716
H        -0.04577676044154    7.40961101081183    3.10224507277064
H        -0.03886751411222    9.17550150398274    3.13547870094604
C         1.20607944465064    8.24663910132289    4.63907448180825
H         0.42492925510057    8.18745507402414    5.39878825059019
H         1.77805229467594    9.16093393172679    4.80784433082843
C         2.14092901478991    7.04356764018939    4.77199389809364
H         2.64008555892720    7.03854707511457    5.73913857603413
H         1.56484145938294    6.11295632526887    4.66858531280036
C         5.71802725745762    5.70870181731161    5.68229433739528
C         4.27634397873170    4.28056217269836    6.96427992843979
H         4.27864607241796    3.60826170121060    6.10503957166042
H         3.40710581051610    4.94761717224733    6.87105644967393
C         4.16970559073806    3.49102207552647    8.26476036406433
H         3.25114295804567    2.90128336962449    8.25642015945331
H         5.01642184941539    2.80756738965756    8.34558001244044
C         4.18209296243590    4.44957924105159    9.44969071649277
H         3.30289748865428    5.09695711910375    9.40407030264743
H         4.14641781487092    3.89699936497033   10.39092059567283
C         5.44701504163978    5.29705194549274    9.38006229759804
H         6.31749201229472    4.65311824287568    9.50587446176885
H         5.45390731982428    6.04382804287088   10.17668060649945
C         5.54065237912666    6.00221470960398    8.02976936448716
H         4.70249864191145    6.71374314423419    7.93038778038214
H         6.47604161506666    6.56076320917184    7.96824406130090
C         4.99618042176957   10.01180893188641    3.08389236497568
H         4.34754470368573    9.72488355880610    3.90505814526440
H         4.42794611851003   10.65580617601430    2.42035038749166
H         5.80170063915538   10.60967131693000    3.49855664489511
C         4.95506037045435    8.52250046173609    0.40173923437064
H         4.94033828454312    7.55263257910214   -0.08315463201515
H         5.58448127790395    9.17241712849452   -0.19947985762017
H         3.94815739633508    8.92434139071179    0.36231485225542
C         7.53909359534296    8.54230678534485    2.03456036652566
H         8.00891325525399    7.98090375379016    2.84214993117897
H         7.91393192388978    9.55805264247262    2.08172387441893
H         7.88698345902399    8.10342719699789    1.10888292473666
C         7.09291116694505    2.65350562006104    5.75541377973595
H         6.40035667077427    2.54200481441183    6.57886794678899
H         7.83438528461195    1.86503087986513    5.84379762339885
H         6.54573932803635    2.48770156967002    4.83440275251472
C         8.62177096428769    4.70317430797297    7.51606959215358
H         8.58588483549176    5.75323684826932    7.77744834142945
H         9.65502050949241    4.37983716736048    7.58941093699110
H         8.05610449086040    4.15871660959713    8.26202641386374
C         9.49957184323454    4.08240473416492    4.69604923515190
H         9.29737459054418    4.26611352475487    3.65366930185468
H         9.83851477527286    3.05676183948137    4.80357121451019
H        10.31473699618381    4.72751139461862    4.99424731942624
N         9.10174236816064    7.06892446850734    4.42595284686235
N        11.37290556419237    7.12305279802355    3.85242533635092
N         9.89540383282229    6.31124174389727    2.36007476261189
N         9.00821320008544    5.03925048948519    0.66297776642756
N         7.64423155811945    5.60679558009242    2.47070794497935
Si        8.87047400840003    8.44336772432538    5.41339618375105
Si        6.58489451589764    4.37320311265514    1.85145945430039
C        10.06811279540785    6.82387488746622    3.57574023070678
C        11.92177300612129    7.08592468111599    5.18301578696901
H        12.51951212797091    6.16646871414728    5.29435877831102
H        11.11060838378163    7.05642156812823    5.90329419273108
C        12.83422070301614    8.28987293421847    5.40820556797489
H        12.24759771546695    9.20435528298159    5.31939931973068
H        13.26085785190880    8.24680159054006    6.41165547250958
C        13.94207975858858    8.28814243389208    4.35747884944474
H        14.57553695544994    7.40924473991088    4.49970061422143
H        14.56948371780890    9.17512240295108    4.46574257135526
C        13.32440811583194    8.24623597756927    2.96226447690763
H        14.10568254422563    8.18632779015915    2.20272633301712
H        12.75295066434614    9.16075234782268    2.79299559696337
C        12.38895953717178    7.04360874533673    2.82959071258124
H        11.88990497694121    7.03861558631835    1.86239189765172
H        12.96457933373038    6.11273756135664    2.93325323511749
C         8.81203055964632    5.70884010127523    1.91916276522927
C        10.25394573004518    4.28063042376302    0.63755670295071
H        10.25141167864341    3.60838131689546    1.49683307283506
H        11.12319139237333    4.94765551927578    0.73094085357275
C        10.36086193456217    3.49100952102126   -0.66285090677966
H        11.27941074007413    2.90124870266878   -0.65426259004929
H         9.51414885556986    2.80757091048024   -0.74382065766308
C        10.34876615862488    4.44948700335399   -1.84784997913178
H        11.22799870467559    5.09680473012277   -1.80210661106123
H        10.38458652008943    3.89683702669132   -2.78903054227218
C         9.08389488257967    5.29706058898742   -1.77853648201187
H         8.21338488997925    4.65318968545252   -1.90445220123091
H         9.07721386561528    6.04378298164790   -2.57520973079954
C         8.99006101424037    6.00231427283394   -0.42830868142924
H         9.82829439135271    6.71372735187398   -0.32875926976656
H         8.05474305262994    6.56101256992709   -0.36706202781066
C         9.53344481655939   10.01209383734089    4.51714060995790
H        10.18224087140263    9.72491839957803    3.69618893643954
H        10.10154437183392   10.65626450645984    5.18063125224670
H         8.72799153772420   10.60981785102961    4.10214702359555
C         9.57429884024159    8.52314426629669    7.19958153218398
H         9.59018866083557    7.55312420447845    7.68413771111861
H         8.94412746297454    9.17208704579877    7.80106524219997
H        10.58073009785763    8.92615843562191    7.23913630821853
C         6.99043305272451    8.54263863805197    5.56659815060361
H         6.52070017835578    7.98052400423350    4.75946106182066
H         6.61546991027423    9.55829727998002    5.51861200050709
H         6.64256364968754    8.10445286479169    6.49261787600138
C         7.43716594638510    2.65350486324945    1.84618148812672
H         8.12978256508589    2.54209016071082    1.02276852167238
H         6.69572648308756    1.86500533253186    1.75769743846897
H         7.98427918391705    2.48768923560991    2.76722548885236
C         5.90861927303393    4.70312507467626    0.08531382392705
H         5.94495134375331    5.75313428742857   -0.17621232141211
H         4.87527176475481    4.38013996277204    0.01178816479930
H         6.47427409824554    4.15836764638906   -0.66043520009752
C         5.03037718596281    4.08227224181892    2.90530104648408
H         5.23260790043042    4.26527710365793    3.94780858281729
H         4.69110143968927    3.05680548717757    2.79713064920614
H         4.21542131204657    4.72781577852965    2.60750789513809

