54
CSD_code = WEYBUA | q = 0 | S = 0 | Stoichiometry = C14H30B9Co | MND = 10
Co        0.90819310155592    3.43960282103401    9.51847929016432
C        -0.31638455992449    2.67748446944577    8.05273588448991
C        -1.05049493711168    2.82271138808429    9.42822241858187
C         1.12041303227791    5.21831961229935   10.75542839317671
C         2.83996162238947    4.15412159193608    9.64998817021710
C         2.17927762238733    4.27593179084720   10.91155059566348
C         1.14297119118687    5.69791063167864    9.42144933142751
C        -0.53045487425639    3.71681577600875    6.96156876607264
H        -0.53253676549924    4.73597883566442    7.34176112978851
H        -1.47945747706171    3.55947944030071    6.44766645434667
H         0.26183731568135    3.63927863659654    6.21940726840968
C         2.18179999550454    5.02413895014640    8.73142250714819
C         4.16176805379111    3.49796456293234    9.40622225108691
H         4.31285040652378    2.65650480626495   10.07517952107452
H         4.96290611127293    4.21993601634181    9.57667228543837
H         4.24099025925308    3.13916008344190    8.38377112330482
C        -1.97876076824277    4.00319823083623    9.67526258989596
H        -2.08746005947298    4.17113942483370   10.74507043750337
H        -2.97345715028579    3.81271145772509    9.27063374437653
H        -1.61795146209150    4.92569609801551    9.22564700970956
C         2.68536786567844    3.77279271532859   12.22602543086343
H         1.86664701928635    3.54211165341986   12.90209905370849
H         3.30698368675208    4.53918148109878   12.69323208425607
H         3.28566622360306    2.87739085455729   12.09956125635402
B        -0.15179732222246    2.13361028698968   10.68337358635321
C         0.29920553673439    5.77009946411360   11.87777963756510
H        -0.60950817806428    6.24461732122291   11.51460214169306
H         0.87626312782026    6.52086792079656   12.42137779505419
H         0.02469967461097    4.98775542884404   12.58209567965085
B         1.16085793132716    1.87527074207614    8.22268394465460
B        -1.57241127855358    1.29452626375840   10.02981429347174
B         1.30502919154936    1.43442512576303    9.93973859254901
C         2.67025810507013    5.33108661935755    7.35080617322823
H         3.01125930981784    4.42898369937733    6.84762241088251
H         3.51331858478883    6.02256917462465    7.40386826511217
H         1.89542116432338    5.79367540561403    6.74412688550559
B        -1.67412972218332    1.62768769570910    8.33022487106974
C         0.36243181257944    6.86637207828807    8.90263711483618
H         0.21674510966164    6.81405039899157    7.82469639791852
H         0.91004932447885    7.78744507476325    9.11318563149815
H        -0.61180942987259    6.95051726217159    9.38172164623464
B        -1.00414702631381    0.08824896198239    8.85025362855767
B        -0.24703361816804    1.03237902876946    7.54449949710673
B         0.76491311473529    0.23419386747242    8.75472171245435
B        -0.07765889296161    0.40051753930334   10.33480903439644
H         0.01499222568818   -0.39395808776328   11.19870655310386
H         2.32883776609333    1.28811196569181   10.50106254547180
H        -0.26950768845104    2.57900492060839   11.77016403608131
H        -2.67047049857304    1.90670123906650    7.76987211150864
H        -1.57413097320365   -0.92168751317041    8.65279890884803
H         1.45947449458017   -0.67901139698702    8.49065352185148
H         2.02822454638479    2.12631311129646    7.46249209863535
H        -2.54898669666524    1.28029522966819   10.68620502544943
H        -0.25486514820776    0.82646984276268    6.38594926219793

