66
CSD_code = WEYDOW | q = 0 | S = 0 | Stoichiometry = C31H28N3O3Rh | MND = 8
Rh        0.09209003748476    3.28193616098189    7.51170482342534
O         2.32034563214117    1.49380337036371    8.13038035225349
O        -0.29438778751532    6.03372172814522    6.79287892288618
O        -0.77546197900429    3.28357251330558    4.77814533183556
N         3.06260394566313    3.30518848013547    7.18029394686908
H         2.94837740795701    4.25850868710260    6.77381069810360
N         1.85959336145893    5.53293737577972    6.57848609104679
N         1.26222158763123    2.38369258931883    4.94175689829540
C         1.97481184404955    2.68961419045782    7.64652245027046
C         4.15654264271331    2.49205635035667    7.33443139562260
C         5.50179169054339    2.62040838676792    7.03099505261587
H         5.88490963978044    3.50879171579080    6.55677282118700
C         6.32169037464750    1.55616115281119    7.36131928248456
H         7.37636588069307    1.61459440158287    7.14024843359225
C         5.82401882034493    0.40815379218491    7.97318191109700
H         6.50257049213453   -0.39621241286584    8.21149318853226
C         4.48075087805517    0.27076931935581    8.28224357669303
H         4.09127707682962   -0.61675941259224    8.75291164048526
C         3.66078728605453    1.33196147215698    7.94935124727410
C         0.67967960177443    5.08954774538970    6.92243225809211
C         0.32638345215417    7.15262485820795    6.33937867353248
C        -0.18313138160317    8.40230295489237    6.04800167917058
H        -1.23280630330903    8.62453390167297    6.15772109269807
C         0.72338452985891    9.34997739353572    5.60538525609081
H         0.37174171341119   10.34178318858351    5.36392175751515
C         2.07841512849129    9.05697787852828    5.46347075756109
H         2.74544657018794    9.83160625542188    5.11460661642070
C         2.58854124891693    7.80710518002789    5.75623901300329
H         3.63692318742054    7.58060061873991    5.64597027982418
C         1.69313713068787    6.84516087898455    6.20088998845595
C         0.27856183942594    2.93409541677119    5.57884307557541
C         0.87605261093944    2.33466523984605    3.62036798282326
C         1.50821771501354    1.84830137498958    2.48520385961402
H         2.49097638202834    1.40940107491272    2.54683616949510
C         0.82792451710640    1.95057548348343    1.28713931955218
H         1.29035871273900    1.58224407645257    0.38293899797744
C        -0.44301441973760    2.51654804209845    1.20891882582953
H        -0.93571796098452    2.57477772027934    0.24980372825585
C        -1.09031442469141    3.00602333047540    2.33017771581930
H        -2.07378778387140    3.44582591045514    2.27486755012708
C        -0.40934231920752    2.90543453687209    3.52666508969215
C        -1.40641951594760    3.93835914815633    9.07093002203654
C        -2.08096459097141    3.54358836512687    7.86173731072699
C        -1.87374745252367    2.13359547733266    7.68523214177527
C        -0.97579129392213    1.69126591550693    8.69212889905941
C        -0.69489661118768    2.81252270534612    9.56195180608075
C        -1.59088177005693    5.25074421161509    9.77090172032202
H        -0.76674461607768    5.45756937445886   10.45038266427282
H        -2.51549471610771    5.22425995924200   10.35171527321322
H        -1.66304754855624    6.06928848808886    9.05814412528563
C        -3.12763271765616    4.35192915670688    7.15292616692999
H        -2.90160665929673    5.41361807216614    7.20867207449711
H        -4.10301150641541    4.18022687572928    7.61413072309030
H        -3.18882818395995    4.07211056614548    6.10377393849434
C        -2.60603544643681    1.26612674480936    6.70833463309598
H        -3.55848421493923    0.95722816914302    7.14470121476355
H        -2.03562465373394    0.37195114284565    6.46619705892024
H        -2.81484672367818    1.80236169536906    5.78544495594630
C        -0.63675647175447    0.26247719644380    8.99703850164093
H        -0.58867980741847   -0.33159809475155    8.08717070837311
H        -1.40348176275561   -0.16622253260430    9.64657538113913
H         0.32210318272108    0.18603731115411    9.50375278292470
C        -0.00738312031569    2.70811880240535   10.89130524426493
H        -0.72183985183401    2.37378264319520   11.64695708413631
H         0.39530178194304    3.66871751959606   11.20584610704729
H         0.80846569246859    1.98882816500168   10.85684171026708

