51
CSD_code = WEYGIS | q = 0 | S = 0 | Stoichiometry = C16H28Br2N4Pd | MND = 4
Pd        5.97800069620946    2.18733289484900    3.14544661839772
Br        6.53507495326225    0.99602150486894    5.19408665589950
Br        5.44486220414986    3.34181025414065    1.05254381405018
N         8.71457799755194    3.24789399426163    2.54686767946395
N         7.86549669074398    4.32891712149688    4.19820634175302
C         7.63119272206105    3.32040322315554    3.33807934707773
C         9.62349512973201    4.20950245221437    2.89860528797025
H        10.55875360782263    4.32851155036605    2.39186130583085
C         9.08810168479046    4.88828045431837    3.94048113124897
H         9.47572096412578    5.70770967897234    4.51019117958852
C         6.96908293001688    4.72232663418640    5.26146983881353
H         7.42609302534487    5.56111856543318    5.78983187715777
H         6.85766555459258    3.88070158279064    5.95800944435509
C         5.59136639800679    5.10824068792615    4.71425673216658
H         5.69222975244783    5.94780640825895    4.02152068001798
H         5.19604188427082    4.24221635892150    4.14273630754879
C         4.60170444951038    5.46192857850991    5.82227188475673
H         4.58155288227280    4.65228336536949    6.55574230571580
H         3.60456538222911    5.54200834224252    5.38363692192586
C         4.93358807933084    6.77373743133541    6.52466223141623
H         5.87352240330454    6.70538143209129    7.06629309866590
H         4.15280393794246    7.02282030883492    7.23916716831304
H         5.00654914685182    7.58431358258605    5.80276169760320
C         8.86798712281640    2.30208707736848    1.47362189862080
H         9.87285962825951    1.87877780374588    1.48326660152062
H         8.68240076125920    2.78360218173035    0.50989958071918
H         8.13040968613469    1.49746981919724    1.61304374859606
N         4.32352796482192    0.02200039386946    1.98550196754494
N         3.13817453925472    1.07273337629101    3.43545763644012
C         4.35945347051640    1.02595084764335    2.87948778431083
C         3.08258876981064   -0.55480819783583    1.97256786093995
H         2.83443652372681   -1.37103512455092    1.32582287824182
C         2.33692688455622    0.10337309108110    2.89102576861840
H         1.31808043488700   -0.03265550462721    3.18916095445149
C         2.76782413881841    1.94809871521315    4.51979612192623
H         1.80148395302629    2.41122285797637    4.29544607805199
H         3.53417792208325    2.73590555224964    4.58335411185713
C         2.70742043165842    1.18719742422685    5.84564961007118
H         3.68752635283597    0.74798746935922    6.04314849188354
H         1.98208940983143    0.37384848002012    5.76542619019385
C         2.32292940968090    2.10310028717104    7.00288414995524
H         3.05033222196771    2.91360117701938    7.07487964351563
H         1.34437104576017    2.54981164516832    6.80862542813950
C         2.28748921181750    1.34170875481462    8.32147315330610
H         1.55306057946524    0.54017969592440    8.28176159025459
H         2.02553328164995    2.00722824563109    9.14038055685059
H         3.26119162227453    0.90471485701657    8.52881961379134
C         5.44511380689910   -0.34669896678921    1.16131865452588
H         6.36944264448457   -0.23385790379417    1.74940839627307
H         5.49817063148013    0.29973601274829    0.27851027142392
H         5.34845507358988   -1.38424647503606    0.84473170825954

