91
CSD_code = WEYGAJ | q = 1 | S = 0 | Stoichiometry = C33H52N3O2Pd(1+) | MND = 4
Pd        3.89008560134671    4.10866990521108    1.30201139255881
O         5.12070891803953    6.26726965435558    2.51183092546675
O         1.66685163747761    2.43133475699430    2.11348148402283
N         3.94858670861369    5.58147116750755    2.70737831196053
N         2.66393254933641    3.03399284893347    2.85500060822836
N         4.24472435745068    2.58673765188244   -0.04669448048681
C         2.71334028370093    4.70539862776152    4.72100449666322
C         3.65626584276167    5.56008544818918    3.94488441478100
C         4.66481747108315    6.23620413505117    4.81861104904041
C         4.72894542883803    5.33136135485500    6.06197680466057
C         3.64960292406502    4.23812934206075    5.86577027532431
C         5.80823945371182    6.45711850874493    3.79572406389068
C         6.33119499398857    7.91133968154014    3.81348737402082
C         5.22429624033524    8.93870705738700    3.56115706764508
C         7.06192959613587    8.22921682436633    5.11540118014253
C         6.95266607645803    5.40623094422886    3.83056141237592
C         6.44632966023316    3.97465536916448    3.61271822836002
C         8.00040076559602    5.70445995640519    2.75364360168419
C         2.14845404158122    3.63958393718762    3.84785407031707
C         0.65911654657942    3.55544811816539    3.92399313787003
C         0.26978912203771    4.98607210099894    4.31752855737947
C         1.43623781854946    5.43935630224471    5.21736210843532
C         0.34049987532660    2.86847680181169    2.57547480031205
C        -0.24262145651543    3.83301479416457    1.50286129024715
C        -0.80864956907111    3.11054104240103    0.27763003097363
C         0.79780457439587    4.84558383160303    0.99838218805193
C        -0.51000409622529    1.59205836198070    2.77320660624972
C        -1.89248088509230    1.91764469591456    3.33333593693811
C         0.18479481658405    0.55585760011698    3.66139475351075
C         4.35656046477889    5.22244738165450   -0.28489475920975
C         3.99728051577873    6.53885726370826   -0.49600320985208
C         4.27947938532376    7.13747496118239   -1.71858204305766
C         4.89912611962724    6.41754370701839   -2.72412476343909
C         5.24299929555902    5.09104525066196   -2.52167546447081
C         4.96770128092328    4.49125377049598   -1.30296686493094
C         5.33078166825729    3.07100464902727   -0.94745156852430
C         6.70137300183762    3.10447801887826   -0.26974553792661
C         3.06471926184855    2.29114107281147   -0.86395216874629
C         4.61127058375338    1.37537743284474    0.68910848858469
H         4.28329663147659    7.21449973168978    5.12263785075521
H         5.71198947476650    4.89153570534465    6.20830530571759
H         4.50345224994160    5.91973163637176    6.95023587583424
H         3.09209374652853    4.06406849191858    6.78435935559512
H         4.10511004431962    3.28889654540621    5.57822785078733
H         7.02650048449354    8.00034618266809    2.97766954678226
H         4.60998359700906    8.64310903641571    2.71441904567792
H         5.67918101105678    9.89726511205579    3.32803663603197
H         4.58808206918956    9.08584282213929    4.43171707535502
H         6.41992938561360    8.05714730279865    5.97647477682502
H         7.35744565791603    9.27470619610400    5.11686587543533
H         7.95901609823212    7.62808333540399    5.22917215942028
H         7.42566728192222    5.45974949263178    4.81490268460100
H         5.80382656791833    3.63121675920123    4.41569346167953
H         7.29949630203119    3.30122902068087    3.56445717611920
H         5.89432355939946    3.89142415504577    2.66022196936896
H         7.51191988672823    5.86817196775126    1.79469781699689
H         8.68017293238128    4.86130712130828    2.65902789562413
H         8.59711581795698    6.57675778679953    2.99969062792486
H         0.37824995618678    2.89692940454324    4.75140855438983
H         0.18676032231351    5.64094827046364    3.45439119161384
H        -0.67642209721362    5.01686147734030    4.85422439649636
H         1.23934733130680    5.14539340251881    6.24854888147630
H         1.56022891805399    6.52113536887361    5.19686838873473
H        -1.05845813367011    4.37752181562423    1.98766540409090
H        -0.07679501478003    2.42280217541370   -0.13876844610355
H        -1.05451157220220    3.84478921629686   -0.48553504978414
H        -1.71553234382267    2.56102704588271    0.50789384915933
H         1.32692476548625    5.35915090596626    1.80450279507206
H         0.29390820319488    5.60231204357164    0.40101473260607
H         1.53164641519691    4.34818621719492    0.34786041885233
H        -0.62176833952321    1.13290393986947    1.78905736434922
H        -1.82003020562493    2.38132217952700    4.31430957645626
H        -2.46336970743128    0.99905831892901    3.43847254378163
H        -2.44560794636600    2.58618918580961    2.68089582858704
H         1.20704071305587    0.38368535405576    3.33326302902193
H        -0.35342573645819   -0.38554254716550    3.59581435683150
H         0.19812180297685    0.85168762749153    4.70833432613759
H         3.50886987832008    7.11690570141030    0.27918046296768
H         4.00873041270205    8.16970960987799   -1.88149342001847
H         5.11156492888792    6.88785895709808   -3.67167518553612
H         5.71909803864117    4.52317022830395   -3.30781411150389
H         5.38425156494054    2.41975755039790   -1.83239650701224
H         6.64790059377356    3.71229060795912    0.63799315626246
H         7.40705657753934    3.57976888660383   -0.94725795989408
H         7.07573443902568    2.11123739980641   -0.03655256518582
H         2.23220374476571    2.01693474358368   -0.21539401353436
H         3.26743202517061    1.45246074676302   -1.54114077705017
H         2.79448419975489    3.16140800858464   -1.46482221690637
H         5.39383231198763    1.58561715639608    1.42160725399572
H         4.96105859391065    0.59213118053573    0.00620264659455
H         3.73282168599106    1.00135508921687    1.21734430937542

