71
CSD_code = WEYHAK | q = 0 | S = 0 | Stoichiometry = C26H30B10Br2NiP2 | MND = 4
Ni       10.47698948084840    7.09671711988230    3.17866669909313
Br        9.16089812394835    5.26479313200886    3.42293562196194
Br       12.48910766065230    6.03167500566472    3.19760512370686
P        11.62243975231247    8.90852244646489    3.17033541315373
P         8.64524708781219    8.20280501149596    3.00044405782306
B         9.73447505811473   10.63997374379183    1.57245351956813
H         9.98533447702329    9.85271796330792    0.73253309614415
B         8.11073548638164   11.18402953486962    1.99987698585446
H         7.20074930843382   10.80483283948339    1.36549223419742
B         7.99428548100394   11.24507291928943    3.75717209855573
H         7.00166169464125   10.89716438861860    4.28032196296477
B         9.55006285001952   10.75534142749209    4.42934481996406
H         9.70338029856834   10.05446264151547    5.35991566068203
B        10.78798011565855   11.89615102927722    3.90444732098039
H        11.76613709616143   11.97933022496596    4.55383865104444
B        10.87712970173351   11.84607055402825    2.14410175246399
H        11.90743984542407   11.92602401474686    1.59090557299807
B         9.32659778801330   12.35375766565644    1.46483891147048
H         9.25571618766829   12.89002984350380    0.42258960339460
B         8.25352458543613   12.74008944477922    2.84174574511100
H         7.40909590858926   13.55250228567594    2.76262142302462
B         9.15528656015068   12.45913955814193    4.36280490449079
H         8.95912100915934   13.06882778215832    5.34734113758824
B         9.98204652630227   13.14802003628668    2.93605636965269
H        10.37855321836956   14.25345002414079    2.91983134732725
C         8.95128609657234   10.05562240916012    2.98266167081521
C        10.52920327525380   10.43008142261122    3.06883027248145
C        12.96603218682991    9.29348844238747    2.00332168715299
C        13.80583372551678   10.39570201065497    2.14541435322873
H        13.67260373931400   11.08963404049047    2.96111977588497
C        14.80340664303382   10.62913144225342    1.21656673804147
H        15.45576805840639   11.48080937643850    1.34049329975060
C        14.96264893364972    9.78428394460130    0.13052972231029
H        15.74606947594885    9.97141482318607   -0.58814261131363
C        14.11108121750116    8.70579456563120   -0.03385645326812
H        14.22170571060364    8.04822880646516   -0.88233437888700
C        13.11838623235672    8.46377285938622    0.89707872992509
H        12.46915920176780    7.60831657157552    0.76924674222410
C        12.29933246436618    8.92386044678817    4.87241068404347
C        11.54330878927589    8.20947447369576    5.80541361424528
H        10.63149140240764    7.68965567693247    5.49539479787982
C        11.94658657410771    8.10565635406789    7.12043228645279
H        11.34999489615750    7.54470240729543    7.82382396539489
C        13.12938307881948    8.70448505342013    7.52359826404174
H        13.45389049345850    8.62293590453487    8.54970376441757
C        13.90853530650306    9.37599445194579    6.59876727365114
H        14.84896417640472    9.81300870797677    6.89967564703198
C        13.50397769039993    9.48207049343570    5.27847644758997
H        14.15221093030436    9.97279579056004    4.57215682900586
C         7.17767970473028    7.89944774523458    4.03736133962348
C         7.08502900197068    8.40266461901278    5.33235381592397
H         7.85178196272621    9.04719075924085    5.73086692726685
C         6.00661302251552    8.07576819801586    6.13450537454184
H         5.94414832623435    8.48394031273404    7.13219870580218
C         5.02419950207776    7.21978316283067    5.66841864975585
H         4.18566107256282    6.96322217089979    6.29780829647714
C         5.13782002050393    6.67173094033084    4.40166847115796
H         4.39654335372101    5.97400693088626    4.04323789230961
C         6.21006223872305    6.99851359476996    3.59411943082852
H         6.30680860901671    6.52921825686476    2.62680541704800
C         8.06810630408496    7.87483469710477    1.30189770267088
C         6.81792879525487    8.26074371537931    0.82795879293268
H         6.11286031832413    8.74511776306346    1.48793870931985
C         6.47149028245418    8.00263142043142   -0.48571113442363
H         5.49988965010539    8.30214792022185   -0.84911839534865
C         7.35985620194903    7.35849879762051   -1.33196614522390
H         7.08075549169689    7.15889234771477   -2.35540192197022
C         8.59941731776076    6.95698774341720   -0.86254796626503
H         9.28766748951612    6.43826010847054   -1.51228552825469
C         8.94815321489286    7.21507309245638    0.44881800104923
H         9.91607251787886    6.87280459059255    0.82477040911295

