49
CSD_code = WEYHUG | q = 0 | S = 0 | Stoichiometry = C20H24N2O2Pd | MND = 4
Pd        4.57042995750446    1.55150314433032   -0.00011115378869
O         3.38609357910551    1.79334295757870    1.64496336404649
N         5.27938891395884   -0.12767372659100    0.85182833399153
C         6.68436634756219   -0.37597234323431    0.56420867610305
H         6.78373126311473   -0.34265677367243   -0.52964653410407
C         7.25439544143184   -1.69841653757405    1.07288186594491
H         6.70416513966446   -2.54513888105572    0.66808604615333
H         8.28739750983815   -1.78037727972799    0.74474223746739
H         7.24082672754020   -1.74515533061838    2.16020302956155
C         7.46204052638576    0.81252006109020    1.15670034009479
H         7.01191749526852    1.76091030189640    0.81783091447239
H         7.42338143112472    0.77613173569554    2.24517110058070
H         8.50058146287212    0.78317881294792    0.83666416654196
C         4.58753443464113   -0.86899427347711    1.63708402508111
H         5.00327587626552   -1.80941365129401    2.00186554099663
C         3.29145902582098   -0.55701885588545    2.16219262285647
C         2.78541183476301    0.78068882802301    2.16489763759574
C         1.55946794840781    0.99713070705374    2.84605344995385
H         1.18331102221865    2.00959141086858    2.87120728785078
C         0.86829505285976   -0.02384715915275    3.44134342856548
H        -0.06964128913601    0.18194588545186    3.93751388388577
C         1.36427891571959   -1.32867756970091    3.41692557438676
H         0.81495449436668   -2.12849840818938    3.88914808252490
C         2.56439752216904   -1.57414579809931    2.79978939854405
H         2.96989567606027   -2.57725454186285    2.79023297965321
O         5.75423790732374    1.30988019653257   -1.64541627221736
N         3.86120282655976    3.23098635575883   -0.85140163127692
C         2.45606439712945    3.47899459008567   -0.56422180569312
H         2.35655053292664    3.44571702984958    0.52961917234857
C         1.88585737461946    4.80131663477737   -1.07307586675697
H         2.43595421454840    5.64809730592427   -0.66824504925779
H         0.85280618891009    4.88324790392563   -0.74506729107104
H         1.89955662657985    4.84807092132620   -2.16039660504458
C         1.67831598909160    2.29055727690081   -1.15678502366936
H         2.12842127330008    1.34219176179094   -0.81783193555815
H         1.71713000796923    2.32688659458588   -2.24525598874181
H         0.63971046083917    2.31980650919728   -0.83691492670385
C         4.55308666240283    3.97246235712404   -1.63649937318558
H         4.13694130801163    4.91244249227578   -2.00192228383142
C         5.84891502500786    3.66034798823534   -2.16214590050328
C         6.35479903695481    2.32257665684076   -2.16533299391934
C         7.58101994348629    2.10626160086468   -2.84602038937927
H         7.95723911435576    1.09381984532059   -2.87117037708362
C         8.27227618701282    3.12731107436742   -3.44106963022256
H         9.21014408808033    2.92153459418961   -3.93737594419750
C         7.77618040870717    4.43209941927252   -3.41672030476362
H         8.32553451414671    5.23196908134203   -3.88882932700136
C         6.57597728302350    4.67749851356896   -2.79970095499117
H         6.17052231948420    5.68062058114282   -2.78999559623907

