48
CSD_code = WEYHEN | q = 0 | S = 0 | Stoichiometry = C23H16MoN4O4 | MND = 6
Mo       11.09491241296131    6.97455071303963    3.75938967799741
N         9.02414647195362    6.96803745873081    4.47369047515595
N         8.08963174688968    7.70706967424210    3.86673718081188
N        10.52851986079378    8.96509887148449    3.18314185656441
N         9.33916106608968    9.28975700951094    2.66992394436582
C         8.33089345122045    8.27062479638706    2.57084803616243
C        12.91162467512187    7.20545862068470    3.13151224981829
O        13.99095728197891    7.33517696561575    2.77181476928848
C        11.68562772309801    7.60347946385307    5.52031196233650
O        12.15812278437844    7.87519797974327    6.52379239417380
C        11.63083194352281    5.18608581808356    4.28460051266824
O        12.05577108782972    4.15344570785881    4.53648841886330
C        10.67233344429122    6.20464335952978    2.01111732733120
O        10.56673290478042    5.66781723289913    1.00285924821393
C         8.55159023730396    6.66777510100126    5.67357250293471
C         7.27753126970483    7.24654284601359    5.84506375860631
C         7.01913805078293    7.90452034962585    4.67126427844035
C        11.20399396493703   10.09139713069194    3.31345517299881
C        10.42817582723692   11.17693589598393    2.89942134537465
C         9.22334276749388   10.63657363128735    2.48919532053105
C         8.04406226149421   11.29409015632306    1.94341652248594
C         7.56087203443886   12.45014705611672    2.55491644306434
C         6.44626077537810   13.09283046771563    2.05114401717520
C         5.80234847684688   12.59511944882091    0.92967656873069
C         6.28691586378324   11.45812521237821    0.30474594111955
C         7.40153248538519   10.80944324185029    0.80426033910897
C         9.28747410850011    5.84330107443143    6.63445917584761
C         9.62212358691038    4.53055749179937    6.31784470981186
C        10.30340714541178    3.75079117171453    7.23417650308748
C        10.65305270589725    4.27325472528510    8.46815601838601
C        10.30543464362536    5.57338540701939    8.79403325189231
C         9.61718587087031    6.35552455490087    7.88518609213319
H         7.40430385787574    8.70779690743279    2.18905363581914
H         8.69139075235657    7.47281127042451    1.90064099028869
H         6.64871794094542    7.17104076315608    6.70784384157708
H         6.17126683866569    8.47716964531062    4.35214930844483
H        12.20956859610350   10.08794485811283    3.69235237706746
H        10.70938221854023   12.20943637804471    2.87488561766559
H         8.06138867509613   12.83113221867764    3.43250680912224
H         6.07757350719540   13.98488455509394    2.53480722602356
H         4.93095353266381   13.09739140388212    0.53807584432920
H         5.79937002013658   11.07756869674044   -0.58034353800594
H         7.79868144547687    9.94767725807007    0.28641610819656
H         9.32963934648911    4.12278748221753    5.36026596047473
H        10.56653906964650    2.73489736403854    6.98159668980816
H        11.19410347365334    3.66575765605699    9.17822466772834
H        10.57333052075118    5.98084141222734    9.75763780157457
H         9.34868127347461    7.37270349588588    8.13347064440702

