43
CSD_code = WEYJUI | q = 0 | S = 0 | Stoichiometry = C19H18Cl2INORu | MND = 9
I         1.98023364091347   11.07626966685714    6.75905718023091
Ru        4.46278890644309   11.73819358882398    7.44664203156006
Cl        5.73596204583906   12.07610357378659    2.52913476524082
Cl        6.55552189156350    6.80438822080156    3.14947498459604
O         4.96895941514124   11.94289778546968    5.43596381434734
N         4.97937105232957    9.85146817724929    6.98543865869371
C         5.32375906281873   10.83688362942466    4.88788082192854
C         5.16044465248221   11.80389973437966    9.63452161486243
H         5.35022248254901   11.03926981575776   10.37966443845810
C         3.91906963202539   12.45606412578704    9.59559618247469
C         3.76091339038477   13.53489038761080    8.66793025477843
H         2.82089887010311   14.08003676178801    8.65785674593634
C         6.05845874989922   13.26237906007719    7.86709020156263
C         5.34833975866341    9.65801207533454    5.69466068921073
C         4.80546987177042   13.94119091614077    7.83805781808784
H         4.68225743159902   14.79889590525324    7.18529460063605
C         5.71521515352454   10.68793350075775    3.54983956148823
C         6.08783624021246    9.44929916707927    3.04082530354780
H         6.37622518826436    9.37864540133229    2.00379392328637
C         6.21682068177634   12.19282946819355    8.76514107437841
H         7.18291093613370   11.70534592881294    8.85422858035842
C         2.80501231604805   12.14458016301469   10.56835697935642
H         1.86899738901497   12.52140429014114   10.14133747966665
C         5.71934340066913    8.38584159398988    5.18869066110073
C         6.09006412116003    8.32195584084778    3.83408742973310
C         5.67325947350239    7.30089362898814    6.08891165968171
H         5.93974371808358    6.31462106820686    5.74349742180156
C         3.08034534074625   12.89386496174304   11.87759912435149
H         4.00080338179063   12.53697481969304   12.33631795957950
H         2.26228369698492   12.73323331309616   12.57466514203662
H         3.17636727119879   13.96290631140058   11.69832880415594
C         4.93611401259599    8.81445697850793    7.79784495287675
H         4.59860750715545    8.99415236669754    8.81130374876444
C         2.62815765051569   10.64796361655479   10.82169856630537
H         2.48596527185654   10.12051334969052    9.88039603607812
H         1.74457484873508   10.48599426740067   11.43312510095977
H         3.48183405083157   10.22571848023388   11.34806098342977
C         5.27816131399529    7.52202249329623    7.38188453435058
H         5.21745061868311    6.71328409835617    8.09209326047973
C         7.16978489373406   13.71869737553149    6.97532510649531
H         8.07828808784829   13.14492042004537    7.14765845874378
H         7.37919521574169   14.77521923945830    7.14282276159847
H         6.87516736466414   13.59948443238118    5.93080058278759

