43
CSD_code = WEYJIW | q = 0 | S = 0 | Stoichiometry = C19H19ClINORu | MND = 9
I         5.70754739300292   10.68662985631254    6.06707679403115
Ru        3.26515660915452   11.32126683774865    5.22996317591294
Cl        0.95029086337304    6.84260375542355    9.89351747810202
O         2.70074805952624   11.71992417390726    7.19869500324648
N         2.68842235276661    9.49602593094412    5.84172843208471
C         4.03185328851573   13.00820765661553    3.89603191714929
C         3.92821238779858   11.85290994315355    3.05686323769831
C         2.31974682233933   10.67130941055667    7.84255784923119
C         2.94086854720550   13.47671712137809    4.62717760268622
C         2.69364564168595   11.19148954006021    3.00193992232716
C         1.69473997081308   12.78579447526639    4.58992166351384
C         5.09902057114694   11.46644618460283    2.18283785750418
C         1.59151294297611   11.64092910389315    3.78053633171178
C         2.28364707865146    9.42967114202778    7.13281332326015
C         1.50828366499298    9.47825867513767    9.78060337239940
C         1.92196912083911   10.65994070870816    9.18170593528121
C         1.86896955770029    8.21809454120567    7.74265131089555
C         1.47497692410442    8.28534384792944    9.08954303174397
C         2.72311609242072    8.39012730879880    5.12513115555512
C         2.33396902598900    7.14999088005789    5.64589819381899
C         5.26474800664106    9.95503109405113    2.03091791802074
C         4.92726831246489   12.13881249013865    0.81544737204869
C         1.90352454288240    7.05597454784284    6.94256757849025
C         0.53008242569441   13.31052937856095    5.37027046288865
H         4.96836452366627   13.55901830155631    3.91112152658368
H         3.02395344998533   14.38955383528491    5.20758151938621
H         0.63356912316148   11.13913205911301    3.68115635597054
H         2.54753369675523   10.36644741594414    2.31391132605317
H         1.94909463609011   11.57849629305138    9.74496306340377
H         1.20787355908104    9.49323758941740   10.81719147127031
H         3.09057220800241    8.46905510471896    4.10905545088105
H         2.38763812000169    6.27953788852931    5.01182410069831
H         1.60198219052922    6.11140390934411    7.36703215868232
H         6.01096279155520   11.85488023600913    2.64990349094632
H         5.32138934466372    9.48132452052658    3.00905882555213
H         4.44665812076368    9.51593893155485    1.46340955630660
H         6.19019049676520    9.74328116759104    1.50225180513814
H         4.03131721517211   11.77077190801799    0.31849944403277
H         4.84288323419923   13.21840333915733    0.92311687646455
H         5.78572680920714   11.92105915614457    0.18565077443751
H        -0.35456900213824   12.69385343369539    5.22377569775962
H         0.77474254581031   13.32176873026964    6.43380651341349
H         0.30319673404089   14.33320757575101    5.06809312341831

