78
CSD_code = WEYQOH | q = 0 | S = 0 | Stoichiometry = C29H45NO2Zr | MND = 9
Zr        8.06866827605120    2.43563058027758    1.60421033138339
O         9.16568464733298    0.81459799615541    1.37758360279763
C         9.91712387349195    0.08067835504077    2.14399274349566
N        10.28575714932021    2.98489474102331    2.46065686488704
C         9.87245767859600   -1.34483192991563    2.11020995573594
O        12.17469814721724    2.58402776993943    3.60272272385076
C        10.69734149186289   -2.06321068418349    2.95124577249229
H        10.64224895299748   -3.13602586824786    2.92147613643870
C        11.60666815455727   -1.47612672519343    3.83705278518667
C        11.68548437709151   -0.10091032000951    3.84145900961078
H        12.38270560968216    0.41738470804262    4.48082330796964
C        10.86660527609510    0.67830919941954    3.01844602714841
C        11.05353859947622    2.10732174176171    3.00576352708257
C        10.92207203724301    4.28671769519342    2.60498607093267
H        10.23892760213824    4.99222551655383    3.08449239318226
H        11.18567668923909    4.67409755117744    1.61535667611866
C        12.17347283635198    3.99587049792540    3.46180052769017
H        13.10602993755330    4.29971708484305    2.97986545114178
H        12.12284871203462    4.44589729703475    4.45908056691185
C         8.91339183747289   -2.03619133231448    1.14616609650877
C         9.02499117019952   -3.56464526495339    1.18014359641806
H        10.02414776467091   -3.89354507918430    0.90386240412729
H         8.32355055283006   -3.98706893685350    0.46336740741249
H         8.77531638745521   -3.96131841547912    2.16177191202063
C         9.21565650613947   -1.57581844854883   -0.28748991896944
H        10.24580152898439   -1.81247302245484   -0.54741698544200
H         9.06685711541114   -0.50238281541368   -0.38519875028205
H         8.55656594866381   -2.08426464368034   -0.98837939623980
C         7.47384624955609   -1.65746419144210    1.52184028860652
H         7.22786382101018   -2.06440693177438    2.50133838814301
H         6.77875987791661   -2.07039530086568    0.79256634484091
H         7.36358854928889   -0.57060730958461    1.54182436646119
C        12.50820953156984   -2.28767071581591    4.75636014700496
C        12.27863278513408   -3.79667044215327    4.63569312382532
H        12.94089306966642   -4.31890025724412    5.32353802010726
H        12.49780110126534   -4.14774951169066    3.63009609685842
H        11.25480859347171   -4.05925159034839    4.89177401735185
C        13.97271558510337   -1.99673864843832    4.39940942667867
H        14.63838464908669   -2.57435620020976    5.03768180425960
H        14.20662321450251   -0.94346334489938    4.52550131729851
H        14.16664937824574   -2.26648942349993    3.36340771576987
C        12.23880613261440   -1.87940821307191    6.21152682260720
H        12.86867743398184   -2.45513771286003    6.88668762809785
H        11.19777921388090   -2.06560635039936    6.46746375568193
H        12.44562686022779   -0.82482967857339    6.36979883745758
C         7.20606827979892    3.88911529769395    3.50055164963224
C         7.81179184040442    2.79735910023119    4.17461101836726
C         7.09120450824061    1.62106533447816    3.84434425546975
C         6.02639229248896    1.98018219911086    2.97269945889945
C         6.10473151414231    3.38612591035641    2.75597022826106
C         7.46920820367606    5.35666325299961    3.71509735336963
H         6.60940674319756    5.81801195107045    4.20752135115783
H         7.62655632993533    5.88522819127796    2.77280151731500
H         8.33443206822647    5.51547065245429    4.35652628253216
C         8.85025509969476    2.85955243753964    5.26260590242626
H         8.36366541381162    2.84465824517004    6.24272359420593
H         9.44383022127853    3.77084709440375    5.20710779318869
H         9.52392530029450    2.00261971831313    5.21870672107145
C         7.30612918852250    0.28936116175508    4.51487405917504
H         7.25452972155450    0.40795201021244    5.59985699231009
H         8.28271701518094   -0.14026586613487    4.27609850193145
H         6.53490370499461   -0.41966063059148    4.22283400867952
C         4.87574675057689    1.09482675607592    2.56688773578143
H         4.08791707542403    1.13724443015881    3.32449522724896
H         5.18478179892206    0.05553388119090    2.46441120297620
H         4.44409061244242    1.41718969582146    1.62061870561759
C         5.11799129986839    4.24988233020957    2.01563729929981
H         4.51688350738698    4.83042633506739    2.72068907036980
H         4.43808012558983    3.64597379625683    1.41810493638986
H         5.62969012636467    4.95336013240558    1.35519345771784
C         8.54224294821009    4.22042429533066    0.31695802549273
H         9.41233031329112    3.99325878842513   -0.32215544018728
H         8.79259896873842    5.13019314690529    0.88138381378247
H         7.72408168290126    4.49294415383883   -0.36567288336982
C         6.80673710736473    1.75013750871083   -0.13016294889778
H         7.44397501216533    1.66238001331795   -1.02465726722104
H         6.01257850857565    2.46842139791274   -0.38102681263838
H         6.32317181000248    0.77430585306623    0.00460624899161

