90
CSD_code = WEYSOK | q = 0 | S = 0 | Stoichiometry = C43H42N2P2Ru | MND = 8
Ru        4.57081531983784    1.59337649189499   -5.31913138207998
P         4.81121818973199    3.71577271663970   -4.58058051693635
C         5.41621392029321    4.11359113188647   -2.90192591903301
C         4.59642223301315    4.38332859199184   -1.81175846941056
H         3.52529364575491    4.44718552546763   -1.93528658918207
C         5.14776845095784    4.59319321229749   -0.55940848923359
H         4.50177122450636    4.80746986861916    0.28004579345140
C         6.51909255722185    4.53213202146990   -0.37921690568795
H         6.94435647149423    4.69401728581741    0.60011096036339
C         7.34487496420523    4.27030811622635   -1.46130552592594
H         8.41645728617357    4.23116099729014   -1.32762301554812
C         6.79594583801685    4.05936544444488   -2.71137879134277
H         7.43179385437724    3.87116078755450   -3.56653468629389
C         5.80649383306429    4.91589304426354   -5.52467985079323
C         6.38271874967906    4.52138351354847   -6.72462424770581
H         6.21737328490460    3.51354726271365   -7.08367572449717
C         7.13575325087781    5.41479570842744   -7.46591467234118
H         7.57115591211628    5.09510208775906   -8.40081086667370
C         7.31757632551936    6.70825800801148   -7.00693147049247
H         7.90447047790778    7.40912575512591   -7.58216497592586
C         6.74687048090769    7.10717577879059   -5.80724388024561
H         6.89002093430244    8.11716358226348   -5.45063184457838
C         5.99560696461119    6.21651380867250   -5.06430158822076
H         5.55927327024328    6.52388438368645   -4.12297863961671
C         3.14596631018632    4.53293596427426   -4.67153040933451
H         3.14343729958508    5.47202420361767   -4.10922489746200
H         3.02886956303595    4.76347859572442   -5.73742047173622
C         2.02953599809640    3.59457313463498   -4.22312279664084
H         1.08874789784596    3.86888186885949   -4.70882855936553
H         1.88309170505693    3.64491055226201   -3.14001872536579
P         2.43362963493478    1.81185788101294   -4.65010766417102
C         1.98587000119734    0.97535042027639   -3.09167003629352
C         2.76096025302263    1.29874665237924   -1.97982059876475
H         3.54134094963441    2.04370261220246   -2.08373240193067
C         2.55574360223315    0.66456634894497   -0.77059389091516
H         3.15710346594805    0.92914045012713    0.08775496320283
C         1.58593626055876   -0.32127686811655   -0.66511496983485
H         1.42514876298380   -0.82333107377357    0.27748548908908
C         0.83527087195677   -0.67177641978534   -1.77437768225813
H         0.09173023216894   -1.45183144653952   -1.69745462707272
C         1.03472581561027   -0.03249256436319   -2.98648288157375
H         0.44983718183733   -0.31773613619001   -3.84963487943776
C         1.01586225390559    1.38993011891493   -5.72024215357002
C         1.25564983164923    0.76148676738832   -6.93477797144952
H         2.27876807694182    0.55240682319340   -7.21640637686726
C         0.20363091643107    0.43858332199219   -7.77445022824944
H         0.39673190609591   -0.04489687921903   -8.72120280983914
C        -1.09572115574472    0.73855141894816   -7.40139271952158
H        -1.91827696742349    0.49107563720506   -8.05614260692112
C        -1.34270552811366    1.35659499495462   -6.18477842615878
H        -2.35739648105988    1.58464771824269   -5.89174075328658
C        -0.29403542124907    1.68097760929212   -5.34478959961838
H        -0.48930200150763    2.15167386754608   -4.39001897016128
C         3.94231198297781    2.47638469287871   -6.98226222542465
C         3.62124378792676    2.93270420812607   -8.06984881017057
C         3.24405318973378    3.43467948460566   -9.30931305841352
C         1.80408304090731    3.78987827571248   -9.51242864502075
H         1.57973648105509    4.71516759876839   -8.97842163698916
H         1.16380100918024    3.00993976391000   -9.10008296439706
H         1.57779556908209    3.93483322233454  -10.56711877412410
C         4.17499739010981    3.60595610313960  -10.30925935600815
C         5.53304358608184    3.31801674324108  -10.09442463867637
N         6.64674393132738    3.09352135941776   -9.91734627467100
C         3.84116122380540    4.08693090547415  -11.58515767230024
N         3.56656229651027    4.47894013438988  -12.63067550093169
C         6.08572649616549    0.34172704229512   -6.41436854158825
C         6.69382323483372    0.87692474603437   -5.24460602884724
C         5.98425610337031    0.36472330580361   -4.09401565861410
C         4.95289610766374   -0.48702617784649   -4.56743335715480
C         4.97524481342579   -0.46995210371267   -6.00769056357403
C         6.63925631914398    0.42908669381410   -7.80351115421300
H         7.20021744730818    1.34799429131936   -7.95762552364096
H         5.84745344582759    0.39498346289726   -8.54932040974215
H         7.31011278109322   -0.41530914128810   -7.97898160785142
C         8.04300625885668    1.53523034310867   -5.21990682095781
H         8.79043715993616    0.82767945886181   -5.58594995660373
H         8.31818863869964    1.82435586155465   -4.20810432369906
H         8.07992458926327    2.41713588102560   -5.85938404280125
C         6.46244572470281    0.45681641167808   -2.67377995452562
H         7.27925299494313   -0.25142320760523   -2.51317550308146
H         5.66215396567859    0.21579203259306   -1.97595019975064
H         6.82723383187341    1.45607460841199   -2.43603392959135
C         4.14837325315514   -1.45327728450164   -3.75171188051734
H         3.14854264391400   -1.58782795259530   -4.16351089170823
H         4.04738065648172   -1.12626958526926   -2.71879606974158
H         4.64950300320181   -2.42436281951133   -3.75522019878557
C         4.26332733498267   -1.45739785180284   -6.88675924018955
H         4.83663861090467   -2.38717855073945   -6.92862629844482
H         4.16376164130643   -1.07835985051676   -7.90251778938098
H         3.27072077904946   -1.68935280485370   -6.50299154440686

