110
CSD_code = WEYSEA | q = 0 | S = 0 | Stoichiometry = C54H49N2OP3Ru | MND = 8
Ru        7.69129467020191    4.28337759790066    2.81938342807403
P         9.17098794111016    2.59858462718267    3.04130479348290
C        10.89729127397555    2.77202014388127    2.47247571614296
C        11.24004836008892    3.89172679736380    1.72758607932180
H        10.48236185846319    4.64631979561147    1.55316099327162
C        12.51804103512840    4.02981287355608    1.21543929439402
H        12.77904407441274    4.90403012754901    0.63584339242504
C        13.46091225623525    3.04250112213212    1.44678881360299
H        14.46090661365436    3.14659823008411    1.05213025785267
C        13.12209216886797    1.91699616335583    2.18325791967334
H        13.85857712527277    1.14602583493974    2.35760711950907
C        11.84490642036321    1.77651837692030    2.69297954139197
H        11.57752749099517    0.90031464794447    3.26842376699163
C         9.36020322548761    1.84203479315937    4.68062251451580
C         8.35962681913272    1.01631715601751    5.18718652864356
H         7.51648274264527    0.75170929203197    4.56612628509371
C         8.43652678947081    0.54914708125208    6.48595756327488
H         7.65865613746185   -0.09614535654344    6.86842337906274
C         9.50056559624138    0.91142892447842    7.29675943898350
H         9.55692292288157    0.54669996304694    8.31186447666412
C        10.48741689705368    1.75118985446149    6.80715481678384
H        11.31254176266739    2.04445961381200    7.44050807453755
C        10.41494938268949    2.22082321727927    5.50866530615652
H        11.18640676939266    2.87797844529466    5.12705083766552
C         8.63042001069421    1.21759209135777    1.94451970136805
H         9.42302138936107    0.46618655929230    1.86494784215498
H         7.74567870954001    0.75855467076586    2.39439782307643
C         8.26158741219325    1.77905164965788    0.57286109397873
H         7.59025920898555    1.08410243296454    0.06158534901891
H         9.16048640791195    1.91193594021278   -0.03658582395738
P         7.41649080537525    3.43553578456062    0.72706840921981
C         8.03516961259096    4.36492767028580   -0.72144964143131
C         9.37030276923259    4.34604724235215   -1.11348639349686
H        10.07497111193910    3.69316213320716   -0.61838950468130
C         9.81133936432121    5.16280628797301   -2.13892119630443
H        10.84885820636558    5.13086775996164   -2.43939202954320
C         8.93161708793727    6.02041180706909   -2.77806455958217
H         9.27912044571504    6.65785968152218   -3.57739761431802
C         7.60392905601856    6.05947837027433   -2.38426994859889
H         6.91298722863259    6.72997725487905   -2.87467035269722
C         7.16053107365457    5.24293225346294   -1.36071445125334
H         6.12259524832391    5.27226676643999   -1.05584617378998
C         5.72927551072711    3.07415916246462    0.12577250968891
C         4.63550138305631    3.59467942677808    0.80548443294021
H         4.80128814140223    4.18511077621542    1.69623750520473
C         3.34967316143870    3.34537641577640    0.35906366951318
H         2.50625345649798    3.74672342376399    0.90162293246034
C         3.14984014712239    2.57896201045592   -0.77687589540679
H         2.14641048837764    2.37601221102769   -1.12148906215326
C         4.23845223360202    2.07836478584960   -1.47510145979006
H         4.08356840115607    1.49038113338631   -2.36838270200970
C         5.52389829064686    2.32928742841217   -1.03239934815031
H         6.37043558060473    1.95646413385134   -1.59350494550167
C         6.37236515353413    2.90101078647878    3.25952783098238
C         5.40461292913989    2.16784020803467    3.44415563694259
C         4.32658424296321    1.31495748206442    3.52805723131731
C         3.03041622832416    1.75276904678603    3.72519232209787
C         2.76957131796219    3.12835925063913    3.80990235486470
N         2.56601470847037    4.26041491304098    3.84394520187730
C         1.91489524042086    0.91288791093078    3.81164354758145
N         0.96740407155643    0.26690962791997    3.91564521098481
P         4.77426973588767   -0.43080356669793    3.22813781307719
O         6.03523907845955   -0.54279582788037    2.47535240702768
C         3.36925665510581   -1.14800106185435    2.32146301252343
C         3.05316135712324   -0.51325853236952    1.12721000432629
H         3.62245749455500    0.35822985862436    0.82670314132265
C         2.02246248044144   -0.99461238052419    0.34373048322853
H         1.76897554576176   -0.49658363414570   -0.58077212896227
C         1.31342237062712   -2.11286496394901    0.75226497254112
H         0.50056032024465   -2.48574492298081    0.14649649269949
C         1.64281303062626   -2.75474139380790    1.93435305717669
H         1.08992551126007   -3.62841475955539    2.24665525665188
C         2.67416153211048   -2.27666374616388    2.72306927296512
H         2.93136698429798   -2.77050823607114    3.64958801367216
C         4.85727197821298   -1.22790578536365    4.86018483248998
C         6.04583091017684   -1.86666072520442    5.18605419031972
H         6.84848994445788   -1.87167148053871    4.46220322725090
C         6.18502114205326   -2.48479550850012    6.41594177013094
H         7.10951095475546   -2.98426083336421    6.66830404548342
C         5.13592038567967   -2.46194744978287    7.32046253968184
H         5.24126739292909   -2.94395583552798    8.28160037349180
C         3.94868132919979   -1.82347200923481    6.99517564251936
H         3.13116676322218   -1.81039203016888    7.70098083282238
C         3.80442086421603   -1.20351201430025    5.76749208769804
H         2.87645075858235   -0.71410104928077    5.51012845301498
C         7.94202310598343    5.53859271600719    4.60361246985561
C         8.89559640182906    6.00738463122038    3.62692444527784
C         8.17671066882036    6.45643511155429    2.49252370731737
C         6.76277268632674    6.31301529829099    2.77403270300986
C         6.62884034135065    5.79847482047540    4.09502211329159
C         8.27741663587314    5.20657837384668    6.02829596834890
H         8.28427122298753    6.11870912775075    6.63039605312406
H         9.25846155920719    4.73926546877535    6.10158653119254
H         7.54591048801235    4.52139758991819    6.45403264532391
C        10.34959656129271    6.22695857514157    3.92725171448586
H        10.89586640032904    6.55945612310459    3.04761946067134
H        10.82623606458118    5.32225945575251    4.30525930954358
H        10.43914769933779    6.99880067210361    4.69504415526586
C         8.72484372868235    7.24195712281368    1.33674711517602
H         8.65303356405302    8.30975714381632    1.55795001142763
H         8.16355270475871    7.04898628923926    0.42330003948094
H         9.77063920075242    7.00589705942737    1.14523961527286
C         5.67066814985057    6.95784614928734    1.97234431030040
H         4.69551802392520    6.56085589194004    2.24626006977454
H         5.81955328146762    6.81083808128396    0.90322440621281
H         5.66602606556444    8.03318927078593    2.16785748326491
C         5.36342018062720    5.71672785357460    4.89049546595873
H         5.17678165744728    6.68239455421298    5.36601078782543
H         5.43965410215575    4.96147134973290    5.67038978876949
H         4.50253881513801    5.47105334546421    4.27160999641672

