48
CSD_code = WEYSAV | q = 1 | S = 0 | Stoichiometry = C17H24N4O2Rh(1+) | MND = 4
Rh        8.35664676617088    3.10290751610754    0.90231239197201
O         8.06545689185708    0.20106491668865    1.58002806611074
O         6.68397605640108    2.45299240151384   -1.49652584498419
N        10.09177298883498    3.56640178051225    3.53835628174404
N         8.14591325643923    4.47565599364606    3.41936372800619
N         7.33765942069910    5.69452016163381    1.59765436940137
N         8.44178933341519    6.09920876078448   -0.20327258294925
C         9.01638979644259    3.69044936398089    2.74088654249084
C         9.88256772698762    4.24640689741776    4.71098392419916
H        10.59214641124323    4.27723162186383    5.50892927781252
C         8.66531436214293    4.83188052994912    4.63342623749946
H         8.14116568654366    5.44573289944882    5.33589812301195
C        11.30482820838242    2.79544148525863    3.22227235654826
C        11.04884879605463    1.33007482739394    3.58071213448392
H        10.77300629770566    1.23576766726148    4.62861359271950
H        11.94716460778412    0.74483546077663    3.40916553501365
H        10.24792250392327    0.91856588602310    2.97317229469814
C        11.62240732370836    2.94700998061507    1.73232105067101
H        11.84356790266906    3.98682905327188    1.49912610840401
H        10.78598099082826    2.60224375400612    1.10672135780477
H        12.49424995294829    2.34837371161616    1.48517534922522
C        12.48664421866080    3.32946741683154    4.03431229122484
H        12.58000364810887    4.40816012074307    3.92889990738090
H        13.40226450180886    2.87448741444348    3.66756953948523
H        12.39794132344648    3.07800910570742    5.08760566575439
C         6.94654808963366    4.98622956713982    2.79532664155087
H         6.43467827935637    5.66922575764551    3.47808736222895
H         6.27763834725175    4.14859535577952    2.53388640659364
C         8.10473060673303    5.11130830440693    0.64308351066455
C         7.88622736892079    7.28269024670255    0.21730499063942
H         8.01357511193621    8.20695901772420   -0.30386997943378
C         7.19698251630141    7.03281327147051    1.35274533808398
H         6.62323712022308    7.68378928379310    1.97891778455328
C         9.40212861459306    6.04910797274886   -1.31682520480381
C         9.69326200766428    4.61095225872396   -1.73734309302523
H         8.82652976260884    4.16963838475433   -2.22265333582419
H         9.99116669599258    3.99226397508122   -0.88131291542755
H        10.51200651759651    4.61035647214733   -2.45150044746839
C        10.69344160028324    6.70939490094493   -0.82088079558115
H        10.51274304490098    7.72888631148298   -0.48914217169390
H        11.42562002263388    6.73770257984382   -1.62209965197461
H        11.11077447150119    6.14347019012248    0.00972523696571
C         8.82578364089169    6.80992307697668   -2.51379360158351
H         7.81877961223766    6.46442830747065   -2.73629619723641
H         9.44682586350786    6.63229310556763   -3.38680726030460
H         8.79876812691428    7.88197183307404   -2.34211083114284
C         8.28195212695289    1.29206642821457    1.33809533680280
C         7.39547147815748    2.70541467068939   -0.64544482031089

