75
CSD_code = WEYTOK | q = 0 | S = 0 | Stoichiometry = C30H40N4Ti | MND = 4
Ti        8.70363144932978    9.61118049303272   11.73896705601465
N         7.47626157067842   11.03063621022211   11.38420632778176
N         7.49384248305024    8.24715166477161   12.30706196659610
N         9.82908170438989   10.03530511746662   13.13619377968704
N         9.54046338919959    9.14311755829493   10.16519487483675
C         6.23185842790208   10.82093439671204   10.86021242859741
H         5.95601493170413    9.86745172936949   10.42302001236353
C         5.45926994231654   11.94521395939364   11.01067274674435
H         4.44395271180088   12.07656630127955   10.68672319003868
C         6.25879784387514   12.89459684013370   11.67775124680984
H         5.97724962163679   13.89487973517971   11.94783096250095
C         7.48501604660194   12.30057632801790   11.89452435601201
C         7.46251270012354   13.08219193515451   14.69773210336260
H         6.95316140044273   12.16357235789950   14.41030187963210
H         6.75859330748878   13.90504581006793   14.57426425592043
H         7.73663622601089   13.02912752215032   15.74954182283549
C         9.85859216130030   12.66340403136558   10.29086006809796
H         9.86148957346692   11.56647901658316   10.23556564088263
H        10.74110119045783   13.05120029193517    9.78509083387399
H         8.96816499410394   13.02288798445299    9.77337625693496
C        12.12279662734655   14.85816525020788   14.18640743802272
H        12.06585196176422   14.89827056880057   15.27150352547980
H        12.17664495755202   15.88002711909425   13.81003731028066
H        13.04224992609030   14.34977786272289   13.90069364253241
C         6.38731120380113    8.51047883748444   13.06391485825510
H         6.25013521727649    9.47110552554179   13.54874134631367
C         5.54461564149336    7.42692008994872   13.06332842398735
H         4.60603950489427    7.34099777958039   13.57791955791940
C         6.15010068300497    6.44889259243087   12.24962159851118
H         5.77132103083670    5.46705745697498   12.03686251806720
C         7.33960633954529    6.98500085532880   11.80000750468207
C         9.98964215994191    6.53674382891245   12.86944244993294
H        10.93385610779887    6.09562933403183   13.18483759608463
H         9.20547508699179    6.22664136635917   13.56180870072435
H        10.06853954884213    7.63180528216711   12.91485115308554
C         6.69646843148550    6.19057334470916    9.07257281519197
H         6.74752073128007    6.25105819553838    7.98717553861391
H         6.27549271709182    7.11415969422226    9.46619987892641
H         6.01784530939678    5.37852117494420    9.33284329603980
C        11.31538778432082    4.30758946137731    8.58358951698964
H        10.98353089519016    4.18862866723936    7.55511094016162
H        11.50311368501256    3.31799294445049    8.99999253839097
H        12.25814742824522    4.85314290691845    8.58687062627903
C         9.41896008648709    9.91190967169103   14.51743095051484
H         9.51098602736664   10.87737131910915   15.04072766994766
H        10.05211391784762    9.18542161976893   15.05912494451410
H         8.37938387044489    9.57612113576481   14.58147503823501
C        11.21423976505696   10.43649558915261   13.06086873081929
H        11.39019432635800   11.34348760375359   13.65988711487073
H        11.49630735499788   10.65434691171742   12.02740777337535
H        11.88453216287856    9.64956355533972   13.45647894836529
C        10.91748225020615    8.75124168199037    9.97496750356297
H        10.98019723528588    7.83402009493443    9.36944229628729
H        11.39791350590032    8.55442234881727   10.93678310235376
H        11.49105557936343    9.53352728068113    9.44261856062497
C         8.86159383922417    9.22735190151201    8.89126705982302
H         8.86384289023742    8.25016871308941    8.38180427330881
H         9.36086733822232    9.94846937966963    8.21820269306146
H         7.82410440125718    9.54658419075145    9.03024326521158
C         8.68935730746078   12.88685085632260   12.50637798665765
C         9.83482330950008   13.10036459349576   11.72781663160728
C        10.93133595760820   13.73574981951511   12.28709918174467
H        11.81088912439158   13.91142322989696   11.68193687386217
C        10.92731271628665   14.15905431946423   13.61056561167285
C         9.79356717054448   13.92925180278357   14.37372638756529
H         9.77719175046400   14.24675590817922   15.40791199398818
C         8.67439452566019   13.30391191516045   13.84068955445905
C         8.36672467761902    6.35517075326923   10.95416083690223
C         9.64611944535097    6.10887126118209   11.47103823589014
C        10.58128780224761    5.44758057535576   10.69196665994865
H        11.56542651376412    5.24911519887437   11.09551915691814
C        10.28416055429746    5.02675671824070    9.40131427762597
C         9.01867601562014    5.28353601965021    8.89922944604354
H         8.77231388318079    4.96701206258810    7.89439869060647
C         8.05566003981597    5.93749254585196    9.65629396565523

