82
CSD_code = WEYTAW | q = 0 | S = 0 | Stoichiometry = C33H44N4Ti | MND = 8
Ti        2.92170955534618   19.71001125488691    3.39124942742827
N         2.34549000567758   17.98049829186330    3.91568656967994
N         3.17966001979450   20.30375043820503    5.18977570499445
N         1.50482421355556   20.56747562040052    2.62071079686539
N         4.46471956457182   19.67761812614339    2.35656438302355
C         3.82681753760519   18.01569027359054    5.96596207778784
C         5.34127073633899   18.21710830661240    5.74030526522401
H         5.50273322487147   18.91226659528939    4.91301320273775
H         5.82192589092651   17.26759267848794    5.51044378749223
H         5.79671904272577   18.63249343250535    6.63821539909594
C         3.61804007661699   17.12260735650018    7.19707536395279
H         2.55593447466416   16.98230643374947    7.38464705841618
H         4.07466717398327   17.57406082212583    8.07456627282460
H         4.07218734811579   16.14845939932353    7.03587116755528
C         3.21797232263978   17.33230325868530    4.75568961081521
C         3.34559232335310   16.02149351380283    4.34891432468898
H         3.94190541337633   15.25304066154724    4.80610114955808
C         2.52005262256809   15.85546981721481    3.21268165066492
H         2.36938089793187   14.94688056953943    2.65857201237243
C         1.92805648224187   17.07453372228547    2.96988762421153
C         2.47202926328844   17.90996746486587    0.21867743751230
H         2.98720811674860   18.67892106721392    0.80661257382568
H         2.49177224155707   18.18300218934701   -0.83454224909904
H         3.00280875453541   16.96669679696992    0.34905468321531
C        -0.74390196452134   16.90056668069934    3.92747412465863
H        -1.80076060524860   16.97906782000911    4.17121701613158
H        -0.17030903531717   17.52352001048930    4.61441040826050
H        -0.42445984808595   15.86957013335239    4.07875678331895
C        -2.47340906319577   18.24039822647754   -0.58541187044396
H        -2.16527328798450   18.85962743834142   -1.42470217160936
H        -3.27934144946535   18.74200361214746   -0.05351348517086
H        -2.86679808811228   17.30375508958780   -0.98182784176288
C         3.22086612745077   19.38207636517766    6.20083355325992
C         2.78811954304413   19.97290326931412    7.36937690665458
H         2.71785997971416   19.52155738706256    8.34078419422769
C         2.44087865161884   21.30294436286397    7.05777636366671
H         2.08837080016372   22.04529941878685    7.74898539464724
C         0.21124931066194   23.10680546877778    5.64659075087668
H        -0.73095967288914   23.37279298267032    5.17095830111311
H         0.31328973518656   23.71646256599499    6.54521945608018
H         0.18249025016913   22.06423569803497    5.95389722804347
C         2.69111150624891   21.47584767317839    5.71151847872285
C         5.03526407254207   22.46181327812600    4.35915333894566
H         5.80231932943062   23.00712723148819    3.81178364072279
H         5.09617216209227   21.40064727932059    4.10348022483706
H         5.23649497953157   22.55466184783465    5.42742926563313
C         2.21120529493236   25.80909645373493    1.93586791389021
H         1.21312364818701   26.24009316559103    1.93930943082762
H         2.41477641450349   25.41175399686491    0.94157200318476
H         2.93175621595094   26.60298882240585    2.12969496731930
C         0.23881085407805   20.53547521490793    3.31559755359864
H        -0.16061325914322   21.55306903240803    3.44198436520975
H         0.36155564869898   20.07693847243390    4.30431606100797
H        -0.50868447996238   19.95675983180169    2.74780655882713
C         1.37595873111955   21.26272421521795    1.36578462679736
H         1.11319031950673   22.32250634319455    1.52720853010901
H         0.57975657166060   20.81166986817129    0.75004461424580
H         2.31041993862848   21.21926109196036    0.80184884492679
C         4.94792132259890   20.75983721619269    1.52680286331230
H         6.00700046980313   20.98415397695257    1.74297896406135
H         4.35913726856177   21.66545378731186    1.70022139744335
H         4.89276876583629   20.49824376928364    0.45337421766661
C         5.30316439242118   18.50841855729021    2.18934619801266
H         6.32872606098752   18.69733068003761    2.55438063022545
H         5.39247281543502   18.22986332392497    1.12495464028571
H         4.88895251722908   17.65446430463972    2.73451413022551
C         0.82808776552776   17.41124491947021    2.03887590327422
C         1.06315428814326   17.78689295886381    0.71577626603452
C        -0.01104029740880   18.06027806401414   -0.11914775948302
H         0.17582581113932   18.35373233898488   -1.14368559470638
C        -1.31921108732936   17.96438105082643    0.33144131048549
C        -1.54007143317568   17.58872807285769    1.64959132310176
H        -2.55573951449731   17.51139326404939    2.01349822622044
C        -0.48721624624611   17.31223288491605    2.50837778864646
C         2.55982212191062   22.64013044235545    4.82763955453964
C         3.67442548357768   23.03503897793869    4.06416043561723
C         3.53960039474261   24.05724029920408    3.13953259542527
H         4.39624404463108   24.36231121680325    2.55192530867616
C         2.33331650202230   24.72696796710091    2.96714054186655
C         1.27417759124144   24.39426873881240    3.79478233325188
H         0.34564639074148   24.94376488812507    3.71313870957446
C         1.37042793783158   23.37185986055353    4.73071919062538

