99
CSD_code = WEYTIF | q = 0 | S = 0 | Stoichiometry = C46H48N2P2Ru | MND = 8
Ru        9.87958937792594    2.19728248613604    2.00069480497451
P        10.22133379245469    4.31733488557825    2.68288511604456
C        11.80053173256532    4.88043351872226    3.41173437376075
C        12.83389128296588    5.16040450352752    2.51933490193958
H        12.62968779450858    5.12014131266291    1.45781136159240
C        14.08894166722220    5.50943856977637    2.97891455206097
H        14.88022532289653    5.72922610246236    2.27655400706721
C        14.33174483435250    5.57700685055902    4.34199932699581
H        15.31276189206047    5.84542016706809    4.70484500193954
C        13.31045241027605    5.30590174493008    5.23656120887278
H        13.49350605925316    5.36713550188981    6.29983924386584
C        12.05205455333582    4.95696872812631    4.77725342777571
H        11.26504298137786    4.75945204481272    5.49005703910455
C         9.92495836617571    5.70950538675289    1.54023631873118
C        10.21045978187891    7.02256284302460    1.90358055732426
H        10.63271999425830    7.23188390771574    2.87736647438412
C         9.96227153880090    8.05311285389227    1.01653727947361
H        10.18282666521229    9.07202199938593    1.30028041697019
C         9.43343960869062    7.78227470141833   -0.23622823052274
H         9.24445408031842    8.59084007293379   -0.92691600042651
C         9.14821981637131    6.47720301128824   -0.60155439920005
H         8.73431101727893    6.26576455718566   -1.57672589471507
C         9.39423857724329    5.44349687632976    0.28468046861712
H         9.16333092342866    4.41685393314945    0.02405961665027
C         8.95289828426380    4.70842670846700    3.98188067769147
H         9.21465276293231    5.62743257907388    4.51580561944379
H         8.03709184886036    4.88762312929177    3.40571346588037
C         8.74149332990111    3.53376597405834    4.93186244351078
H         7.73105257137220    3.56379911557023    5.34917438274165
H         9.45364308935250    3.56481262916934    5.76201851317268
P         8.98830180118785    1.89479249733655    4.05058533841558
C        10.02520593907886    1.01095578378766    5.26549861805475
C        11.30431904813112    1.52476234226202    5.46878643413713
H        11.59711080904926    2.42521548891686    4.94137301375474
C        12.19337329701332    0.88587608489818    6.31009821096467
H        13.18093548000252    1.29669153312468    6.46616311830750
C        11.81975228467759   -0.29064134280372    6.94246852561947
H        12.51391414179052   -0.79672690934872    7.59702889119643
C        10.56092389830778   -0.82299220317447    6.72155478503043
H        10.27488144006653   -1.74765923034499    7.20143785122075
C         9.66524384890701   -0.18086581100459    5.88298186713321
H         8.68728679312974   -0.60712713153382    5.70934247290246
C         7.36355867268069    1.10258794319972    4.30041590186412
C         6.75213893489277    0.47435642480577    3.22318145614698
H         7.25417842747001    0.46996846445518    2.26616303029962
C         5.50571368580818   -0.10853017749519    3.36963060265314
H         5.03266230240224   -0.58509543268590    2.52356067466855
C         4.86610322267830   -0.07262184258889    4.59719905533904
H         3.88961387656875   -0.51970625333855    4.71247365872196
C         5.48018117085014    0.53501640502928    5.68195258713732
H         4.98565431275400    0.55349914623245    6.64253596797278
C         6.72473366155011    1.11873361726660    5.53869235515114
H         7.20789494880305    1.57923473526930    6.39084058083363
C         8.05234217818790    2.82551008425543    1.57475153172536
C         6.87942780123645    3.02865759353018    1.29397604568151
C         5.52240466104366    3.17433032892245    1.04946043044513
C         4.89690948644618    2.36418696649466    0.12568360747583
C         5.64561272599909    1.40534641574685   -0.57319986523221
N         6.28510208856915    0.61908326940384   -1.11806311918541
C         3.52177988372975    2.42111923325250   -0.14120764710013
N         2.39301851529019    2.46268806205055   -0.35809493000600
C         4.76207253049790    4.15081285519810    1.89514213321363
H         3.74334843825649    4.27100520900675    1.51965080320742
H         5.26473367449052    5.12269121123413    1.86582394199318
C         4.73166523981305    3.64473964463140    3.34235418404677
H         4.19117241089560    2.69517421136088    3.37772722816299
H         5.75796149978935    3.44687698451122    3.66633353273460
C         4.07309722311051    4.63813149004879    4.29301161140647
H         4.61895581807434    5.58484247681555    4.26541009333906
H         3.05140706987672    4.83433364538575    3.96064413948931
C         4.04771700236300    4.10595209529460    5.72032162924466
H         3.49316309591838    3.17140494722905    5.76613249459563
H         3.57514397902018    4.82147390680483    6.38925100174383
H         5.05903285976815    3.91664467470160    6.07538093690364
C        10.25678203718057    1.36458399652221   -0.05449909159204
C        11.43939114616428    2.00534227954444    0.42030054212022
C        11.88505211300578    1.30827456310974    1.60353538963172
C        10.97314056545058    0.24416240500104    1.84169442013487
C         9.94059826611286    0.29364536434338    0.84027626367135
C         9.60531728142151    1.60599161104055   -1.38177209251811
H         8.53503254476971    1.40970074176462   -1.34002651509778
H        10.04211770333484    0.93112056145275   -2.12182366988646
H         9.76168340462508    2.62863000128289   -1.72095991083488
C        12.25845525533351    2.96843417463806   -0.39152280280900
H        12.57517925290493    2.47627387344513   -1.31403016769793
H        13.14989724373324    3.27554927491765    0.15062837731764
H        11.69079433211532    3.85822284973184   -0.66709782125524
C        13.22984240348929    1.47987985856918    2.24992995553012
H        13.24541142237771    1.03523855809264    3.24357950271418
H        13.49704844579969    2.53252276961249    2.34700470108734
H        13.99589180454120    0.98791443484166    1.64506686588315
C        11.16671758372928   -0.90012583990360    2.79046068264363
H        10.21697647810319   -1.24073937208146    3.20273474122593
H        11.82004375547238   -0.63410763075196    3.61920153865520
H        11.62046034127827   -1.73545138051758    2.25168839680463
C         8.96931450837653   -0.80824598095161    0.53700868088436
H         9.44225040589576   -1.52630051265941   -0.13773206716551
H         8.07766201220806   -0.42488577336684    0.04228119569342
H         8.67206355430253   -1.33978695063664    1.43976202599485

