87
CSD_code = WEYTEB | q = 0 | S = 0 | Stoichiometry = C42H40N2P2Ru | MND = 8
Ru        2.87613250011272    2.25079475267684   12.38799684391326
P         3.61245029456653    4.34486048764281   12.78762639401046
C         5.24390607638266    4.70322443993361   13.53068608330261
C         5.45533130668353    4.97363750601555   14.87814721326369
H         4.61958172771303    5.06016612264160   15.55688783814287
C         6.74081285191515    5.15294545371421   15.35973371168610
H         6.89377130721517    5.36835388817532   16.40757855771593
C         7.82728018241225    5.05978009354938   14.50673033920201
H         8.82825708935501    5.19779378011489   14.88762294389551
C         7.62581089717264    4.79553423758885   13.16092759181833
H         8.47022655459095    4.73015691230010   12.48980590011833
C         6.34373565558227    4.61568290654384   12.67917994837673
H         6.17291347905198    4.42430714111737   11.62807910240342
C         3.64662085611005    5.57924963542405   11.44404917158205
C         3.15856091158378    5.22542442388050   10.19303426363557
H         2.75816213644119    4.22779858483244   10.05424978251700
C         3.16545678897848    6.14244675193317    9.15698665944417
H         2.78333565445638    5.86373774029988    8.18571224156371
C         3.66159060431855    7.41811887193473    9.36765942054109
H         3.66861704429401    8.13562297012037    8.56043684678738
C         4.15028105770061    7.77617337824839   10.61476027488405
H         4.53629921795803    8.77207665833464   10.77730976057653
C         4.14741529478029    6.86140165181716   11.65087228548596
H         4.53935023024805    7.13601557978925   12.62107638974369
C         2.39925127907183    5.15912577627981   13.93381402755941
H         2.81541486354162    6.08346401401399   14.34649378974122
H         1.55685534100711    5.41662684112840   13.28071659395342
C         1.92807498430165    4.20385501081278   15.02685915480336
H         0.92251474738455    4.47688320982970   15.35958538810694
H         2.59618257879073    4.23454285945413   15.89295908044907
P         1.89445928619963    2.43287960922638   14.40903598062454
C         2.72398012978521    1.57420789309363   15.78975649903427
C         4.06641896187501    1.89078284266929   15.98772513814023
H         4.52667144959882    2.64112312296540   15.35551434430149
C         4.80633486027216    1.24424511123105   16.95775774721362
H         5.84503980694587    1.50318134498787   17.10747914632680
C         4.21597647775529    0.25402132993327   17.72876416256960
H         4.79203562554794   -0.25764146444437   18.48558897919260
C         2.89118982552042   -0.08769288858087   17.51629393432637
H         2.43540758230448   -0.87040125896611   18.10511766061135
C         2.14533870750669    0.56333076015297   16.54792751343024
H         1.11432845343925    0.28431815661411   16.38267480942536
C         0.14729847927066    1.98852314959566   14.67648660158921
C        -0.55169069144475    1.36816834301561   13.64932655244729
H        -0.04787523960524    1.17993095101978   12.71154618131860
C        -1.88093178232590    1.02233172963222   13.81883468597824
H        -2.41852987071753    0.54621891802039   13.01216998046205
C        -2.51663739634900    1.29068851845430   15.01914883513898
H        -3.55447966361991    1.02406057163313   15.15405806435976
C        -1.82146726535355    1.90273306880265   16.05169731236836
H        -2.31763354404761    2.10749605778597   16.98957192177297
C        -0.49445277001238    2.25127698423912   15.88538748296839
H         0.05049131776167    2.71891910867329   16.69540999409860
C         1.24559524797913    3.16830771886270   11.74294309065567
C         0.19700148653155    3.60125641236123   11.28031420992986
C        -1.01050026785799    3.99779447440080   10.74398361895247
H        -1.37576532639444    4.99807270212941   10.95106541347766
C        -1.77307545273806    3.16128160385690    9.96213144468346
C        -1.33519820010289    1.85701341009871    9.68800993395869
N        -0.94906450531212    0.79312903774808    9.48059764084799
C        -3.00250802012688    3.55972463485025    9.41682033403962
N        -4.01141399022619    3.89374602666216    8.97847084009842
C         3.12590581523962    1.03644801449894   10.50879271352730
C         4.40038618335570    1.51215803605917   10.94005167690672
C         4.67594834212753    0.94310217929576   12.23845422028696
C         3.56946697552599    0.12341630393880   12.58977543052900
C         2.58753558106377    0.20469629055388   11.54065818712503
C         2.56291472025638    1.17764025379279    9.12759686714036
H         2.88642562347080    0.32796152568182    8.52151517859880
H         2.91168692541845    2.09003304816138    8.64672852065766
H         1.47442505592266    1.18280920709750    9.14318195479860
C         5.41132324351854    2.15508685130849   10.03291229713067
H         6.33797787100111    2.35795752760273   10.56503230001044
H         5.04361749475160    3.08719363617297    9.60210505138109
H         5.63533492065124    1.47293222630406    9.20955787153258
C         6.01383329976559    0.95666828783824   12.92062844110747
H         6.68058154870277    0.23635707540813   12.43972998291446
H         5.91956934457214    0.68315056900032   13.97019386417010
H         6.48108715583754    1.94033864618707   12.86940263440200
C         3.51802981051677   -0.87340107669252   13.70783374389026
H         3.81014944975118   -1.85326509248877   13.32253621513479
H         2.51238043585835   -0.95929088921330   14.11900806214871
H         4.19493977225170   -0.61031859923741   14.51829762420629
C         1.42631461100322   -0.72828541618076   11.36841314350940
H         0.63684930905237   -0.27525263468443   10.77034832165553
H         1.01070602203271   -1.02967661675181   12.32870060603255
H         1.76437326250882   -1.62818901461216   10.84845743761696

