77
CSD_code = WEYVIH | q = 0 | S = 0 | Stoichiometry = C32H38Br2N4Pd | MND = 4
Pd        3.05588557171607    3.29084935039749    4.71589172847921
Br        4.75959605564395    4.92226304950138    4.03115416413916
Br        1.11291380346600    1.84209690218994    5.18707540907440
N         1.06390374068708    4.90264122156393    3.16728985533070
N         1.44265280386883    5.73649153292793    5.14791718492139
N         4.57093547037804    0.60927780757927    4.69252974492308
N         5.30052658528627    1.95518968599268    6.19671619411598
C         1.75011917457845    4.73178345494166    4.30966278681132
C         0.30014856307952    6.04747948676896    3.25687437276315
C        -0.55908633572882    6.68129808786763    2.37162285469927
H        -0.74117975623369    6.29960824168643    1.38044210292498
C        -1.18309832669318    7.83720794271267    2.79817085609680
H        -1.85731010850373    8.35031500290003    2.12952157703939
C        -0.96242805831812    8.35393159162586    4.07110575327041
H        -1.47273680335285    9.25671692457595    4.37035227430211
C        -0.10167182860817    7.73887027719954    4.95888969304471
H         0.05739027676914    8.15647789715804    5.93958947978535
C         0.53762216176251    6.58111428682848    4.54077347326757
C         1.17851379675299    3.97829165785446    2.05066638288098
H         1.83085031313241    3.15964546985487    2.41384345232982
C        -0.17267075691987    3.36553386635686    1.69641758498198
H        -0.61191382023700    2.90329763050472    2.57816409160926
H        -0.03238130217212    2.59734219617445    0.94049521061820
H        -0.86403267593563    4.10886025584021    1.31081237492324
C         1.86916604091817    4.65354171029059    0.86871875090109
H         1.26135724124603    5.45941973895035    0.46561087061041
H         2.04913537142853    3.92398793516121    0.08345151806494
H         2.82512729137725    5.06671386352353    1.18703439432204
C         2.03627806748268    5.84559914366671    6.47130821237436
H         2.75527035628814    5.00296409205715    6.54440740430503
C         2.83106178943070    7.13970133805307    6.61482167482035
H         3.56939316563899    7.20925740544707    5.81857266077461
H         3.35579308202955    7.13447817540762    7.56609514770820
H         2.18776950023559    8.01400170414962    6.57350592225164
C         0.97229402709561    5.66884179738215    7.55143179227989
H         0.24415115098916    6.47537676969905    7.52382592092828
H         1.44329687128547    5.65990175895836    8.53047980583408
H         0.44826962665479    4.72506998975443    7.40920463325660
C         4.40216328517464    1.84681587509161    5.19667247104405
C         5.56574706424306   -0.04718229610886    5.36659929594142
H         5.85695517878171   -1.04810706172088    5.12314391256016
C         6.02502793030407    0.79860973567844    6.31682680197378
H         6.77807471051442    0.67094566162325    7.06712500968715
C         3.86327246685904    0.06153449515880    3.55431358282728
H         2.83687417054934    0.44916891543927    3.56831651098752
H         3.83026773186361   -1.02537098676030    3.65805698099928
C         4.54270221938397    0.45995809029981    2.26711276967550
C         5.24890594107419   -0.45835053082673    1.50462194803773
H         5.29783459830975   -1.49276535914340    1.81506771777080
C         5.88574233805580   -0.05424706126869    0.34326991928927
H         6.43069857500357   -0.77592883386793   -0.24746962265550
C         5.83099740755922    1.26983125325037   -0.05647909838361
H         6.33475178246465    1.58286242242079   -0.95886228390058
C         5.13095282574973    2.19315581105481    0.70307144989236
H         5.09156010556585    3.22924747416882    0.40300492208863
C         4.48719034250936    1.78528811844877    1.85560673289309
H         3.93752844926463    2.51085222792233    2.45999974104714
C         5.50414508236936    3.13002537117719    6.97457197908074
C         6.65179520547053    3.89708764383503    6.75687520804807
C         6.81430480302675    5.05620857141979    7.49658510964072
H         7.68566272812581    5.67018134336012    7.32373169609174
C         5.87698398629154    5.45757524317832    8.43953328969384
C         4.76368986922378    4.66152236551516    8.65445887815600
H         4.03506558498483    4.95007897486561    9.39940466039149
C         4.55765716317737    3.49180318136706    7.93397864491507
C         7.66196495659116    3.49369395414216    5.72810118224247
H         8.13149095554592    2.54446425465675    5.98510034821326
H         8.43473509436218    4.25172239367364    5.64163959386562
H         7.18397762541698    3.38422144167461    4.75552808288800
C         6.07885773395249    6.73220756108306    9.20055179087190
H         7.04007099101870    6.72132668792862    9.71214898490279
H         5.29368340666244    6.87822226403173    9.93868847028594
H         6.07765172686756    7.57983953388259    8.51593484622504
C         3.35536578154531    2.63359829498019    8.19305227522587
H         3.64109765375595    1.58924386999552    8.31861765929421
H         2.65343321819588    2.68408095226806    7.35276935809752
H         2.83320718356597    2.96323890271927    9.08738186934569

