77
CSD_code = WEYVON | q = 0 | S = 0 | Stoichiometry = C34H36Br2N4Pd | MND = 4
Pd       -0.04896833210284    2.59347173688028    3.42505545376624
Br       -1.02264945314540    2.65161061849974    5.67919072497101
Br        0.59734723897933    2.42712344374669    1.06453790116099
N        -2.78440444431010    1.79712769304389    2.42009264914015
N        -2.49299056858626    3.95539457251606    2.52745146912030
N         2.84787358380735    1.73683602813214    3.82616635028824
N         2.43901634663746    3.68938929994486    4.68709561228263
C        -1.91533279234645    2.76067756107972    2.75560505376821
C        -3.95311271134710    2.36762815846541    1.95960397954228
C        -5.14304930203767    1.83484719278824    1.48584996116236
H        -5.30547911675748    0.77174993364251    1.41574052459935
C        -6.13170692930743    2.71685072767192    1.09595918996365
H        -7.06724955658893    2.32901340980534    0.72288670223197
C        -5.94821216586799    4.09402461333179    1.17349925882359
H        -6.74510654389755    4.75137511392875    0.86087917920672
C        -4.76796449645914    4.63810248529033    1.64038563038201
H        -4.64490594449294    5.70746580716830    1.69219237669867
C        -3.76537212575162    3.76339294712145    2.03257112130826
C        -1.80868714176175    5.21263031999192    2.78985822860900
H        -0.80143972645716    4.92824517069505    3.16453393158753
C        -2.51463514544670    5.99853847018901    3.89117761874140
H        -3.50645692449274    6.31550515666963    3.58027092745914
H        -1.92855193508434    6.87996259580833    4.13972581464055
H        -2.61041835849402    5.38272107165956    4.78396933477684
C        -1.61943431270901    6.01144975397226    1.50352362730244
H        -1.12496822736833    5.39584356915186    0.75409126182575
H        -0.99499874242291    6.87843021610597    1.70473864482610
H        -2.56995944321841    6.35074779234073    1.10156024509206
C        -2.45862930335852    0.38887835954454    2.55831248533551
H        -1.43246315067457    0.36391717240244    2.97882030255010
C        -2.43461114557695   -0.29268233739316    1.19352982048350
H        -3.41859074012806   -0.29310213135307    0.73256083987124
H        -2.10080811610133   -1.31976725304667    1.30716009616235
H        -1.74070535001309    0.22437867349250    0.53356036813964
C        -3.40233828192073   -0.28131282940687    3.55192987861370
H        -3.33992059225878    0.21751258314299    4.51714999037144
H        -3.11484858804912   -1.32013741121164    3.68092476785097
H        -4.43213491754778   -0.24420885015340    3.20763374238021
C         1.87150916889494    2.64237472367499    4.04791760516007
C         4.04937749800177    2.19986151131273    4.31467536668075
C         5.32823360409179    1.66469544509354    4.33885706579064
H         5.54942720339106    0.69631499399410    3.91778923640069
C         6.32109383335047    2.42640110386643    4.92451605341615
H         7.32803512187097    2.03993310472852    4.96143366343208
C         6.05732340620681    3.68396870947769    5.46409238451507
H         6.86570695065536    4.24595792813658    5.90585977176715
C         4.78753479907650    4.22741914884099    5.44283333361145
H         4.58846043020593    5.20502004328179    5.85168739652113
C         3.78471366371987    3.46503693512034    4.86543252920683
C         2.66482853003598    0.49047793684036    3.12227736914685
H         3.55661878695464   -0.12256514171669    3.29131372732611
H         2.59068920714201    0.68953971831033    2.04522441072012
C         1.45434659982395   -0.29387055104166    3.57467072021560
C         0.92686430477257   -1.25771179340869    2.71920622981760
H         1.31582556102280   -1.34761208441974    1.71518390029068
C        -0.06989717077287   -2.11163241372368    3.15609935179973
H        -0.44568398207020   -2.87808912378197    2.49356670596925
C        -0.57474051660087   -1.99433655677350    4.44111968920715
H        -1.34088122434173   -2.67183293777632    4.78866250268875
C        -0.08457090309555   -1.01374080373019    5.28545748299748
H        -0.48043864206804   -0.90447165118551    6.28375280826513
C         0.93623833420615   -0.17582316585377    4.86274283471752
H         1.35971379199135    0.53051850371648    5.56589185636857
C         1.76854200785127    4.90462631216597    5.09175845026695
H         2.10550167473743    5.17298667959107    6.09694488233041
H         0.68851293584813    4.69915200425473    5.13826597206074
C         2.02796867725846    6.02986711713442    4.12151724025299
C         1.81409436007969    5.82467697945934    2.76426763471310
H         1.47552306695878    4.85549652846842    2.41092804688559
C         2.03689458282923    6.84280032390289    1.85612742398765
H         1.86868974943817    6.66731398460904    0.80426862353405
C         2.47253666069715    8.08072167756525    2.29983686377036
H         2.64656608821781    8.87862145428885    1.59321020654092
C         2.68441575114183    8.29314441598670    3.65139823676502
H         3.02480229391522    9.25693186206516    4.00091681056426
C         2.46623392869960    7.27112589307315    4.55933184134641
H         2.63155732222573    7.44206974896642    5.61396870574523

