231
CSD_code = WEYVIG | q = 0 | S = 0 | Stoichiometry = C90H122N2O12P2PtSi2 | MND = 4
Pt        5.80882721737247    5.65784798102405    5.93980677109049
C         4.85033464573923    7.15732025020158    7.01162238537955
H         4.01417196923594    7.57730199954620    6.44370671713708
H         5.53042057834419    7.98789399142682    7.24011150818648
H         4.43545724868057    6.81082151259929    7.96275282357500
C         3.87942020390437    4.96995249836228    5.59369728623286
H         3.33366604198484    4.89357451853522    6.54009787796339
H         3.87685801076116    3.96879268664587    5.14492222216331
H         3.28552027093130    5.61500903662747    4.94040592264159
P         7.89708427330757    6.54124508610050    6.60361136130107
C         8.15290798651284    7.93309967265283    5.46052732517975
C         7.25523850243040    8.02304785889985    4.40659414838341
H         6.47145343585225    7.26689436085878    4.35912590240908
C         7.34672702449076    9.02337769607207    3.44853595518195
C         8.34601754494463   10.00671739314253    3.61650993926512
C         9.24185714333381    9.89125329351215    4.67733051503768
H         9.99919085628575   10.65574566585941    4.75137773876596
C         9.18780038289754    8.85467833981906    5.59205660926209
O         6.54972672810538    9.09084422696084    2.34386901657659
C         5.65315409126986    8.02250087877228    2.04108433610968
H         6.12725431993000    7.06635480730642    2.30001721222837
C         4.32897188247756    8.17935284392481    2.78568124068288
H         4.46033488966304    8.08215533586423    3.86110976556883
H         3.63722714208398    7.41474750371575    2.44342232269241
H         3.90499593693066    9.15914970160516    2.57508301654925
C         5.42565527156505    8.05112821543453    0.53295923437009
H         4.96435539173269    8.99131855815018    0.24106190507848
H         4.77384294830078    7.22646645580279    0.25914825445846
H         6.37067786113061    7.94622991041836    0.00514726476060
O         8.59219094800616   11.06499853983583    2.79437225817359
C         7.56679840566664   11.66636123291230    2.00432076026607
H         6.58408219208770   11.34319231447320    2.35918234333341
C         7.74512800643447   11.27317976891188    0.53983194760291
H         8.73106913726212   11.57674231309516    0.19537251154060
H         6.98855769203333   11.75740885606661   -0.07141314592736
H         7.64930395220527   10.19693486128052    0.43323174012220
C         7.69797735843179   13.17716380537153    2.19069922286780
H         7.57634728943809   13.43835317878835    3.23920656655288
H         6.93975061907518   13.69195898595757    1.60711189998387
H         8.68216308925348   13.50380900754000    1.86452777875822
C         8.09167016110134    7.34012215827619    8.23267723433758
C         7.23327390555017    6.99391208955156    9.25853668505991
H         6.42753295866358    6.29736610108646    9.08226884639548
C         7.37394290203273    7.51921688341648   10.53741835825788
C         8.40653865658931    8.44784984057165   10.78004618963771
C         9.26111704348900    8.78336085789099    9.73477176528988
H        10.07249015993633    9.47508413111596    9.90075161474233
C         9.13569769674874    8.22768558535784    8.47189786905422
O         6.51854490084144    7.00015893275376   11.46681454210076
C         5.98766878116461    7.80875704568281   12.51293339645578
H         6.79705798082249    8.13927901399445   13.17525823269443
C         5.03611532921925    6.89947463700058   13.28394332960463
H         4.23059131325343    6.57114198139102   12.63186809571362
H         4.61480669851432    7.43174721072494   14.13192235447598
H         5.57025290494680    6.02383712091338   13.64326187067745
C         5.25712323201470    9.02455874775623   11.94652718617311
H         5.94780116307790    9.66386580887740   11.40187595337811
H         4.80922038116808    9.59857566701608   12.75340570156471
H         4.47527797729950    8.70089224558970   11.26258316663678
O         8.53426264641731    8.93002495355869   12.05613705664641
C         9.38905452781695   10.02931811318819   12.33277321075137
H        10.38914901264935    9.83850312558380   11.91659565569340
C         9.49440765839461   10.10039503168372   13.85347832792168
H         8.51364605884601   10.28700978134470   14.28361713361913
H        10.16872868316171   10.90110616689685   14.14332933620527
H         9.87037641606021    9.15859065580893   14.24444895017661
C         8.82551104658176   11.32959854798662   11.75908497545746
H         8.69536393369463   11.25275322839382   10.68211378304964
H         9.50206721301058   12.15262577998746   11.97259365868079
H         7.85858890165063   11.54066566267924   12.21091617059064
C         9.55898328162251    5.77346182672993    6.59099738157584
C         9.68673278216626    4.39522924124755    6.48161791594930
H         8.78765350714627    3.79600044443672    6.44249305337286
C        10.93729670307157    3.80419354478362    6.40567132476354
C        12.08960108233310    4.62409425597643    6.47662646069095
C        11.93883331185384    5.99191020844871    6.63561533653984
H        12.79895887689935    6.63815479457739    6.72064779517381
C        10.68246202386529    6.58073164254500    6.69191097687140
O        11.17525872992386    2.47535644366987    6.24325048409995
C        10.10894360691212    1.54313585479489    6.37957132420190
H         9.22698144188959    1.89748400279514    5.83142042552481
C         9.76149010829893    1.34336684240131    7.85430352823253
H        10.61068010748262    0.90884665892330    8.37732576036267
H         8.90317156790506    0.68529209771028    7.95081626745015
H         9.52135647597439    2.29643379184596    8.31944228211477
C        10.58064128231901    0.24509274456376    5.73533282324437
H        10.76193906366018    0.40075945984773    4.67590670245912
H         9.81614694753559   -0.51734724370732    5.85029124515624
H        11.50050481169756   -0.09137437928512    6.20649563676186
O        13.28030609891222    3.96952394394326    6.38326681343459
C        14.48627817575862    4.66260806362007    6.66242724517665
H        14.50847187241403    5.61605997541013    6.11355903213945
C        15.61844287115019    3.77763933262365    6.15119292507447
H        15.54807453485216    2.79534064488768    6.61026105922719
H        16.57911082320298    4.22197846731008    6.39638053568958
H        15.54350194395404    3.66445723968235    5.07361688215341
C        14.63419939016759    4.92704879994631    8.16230497662551
H        13.79546250206385    5.50906001731337    8.53617089931851
H        15.55371959019643    5.47346986057745    8.35471275979761
H        14.66336860187513    3.98053641500133    8.69689667976943
Si       10.32808945627803    8.40909725676489    7.01896680173232
C        11.90967987151573    9.32762730933371    7.40900913457561
C        12.46223640106577   10.30681957040174    6.59625027921910
H        11.95296879004573   10.59233602035372    5.68931182748877
C        13.65084774110645   10.93099442263297    6.91018971687066
H        14.02515138694355   11.68681464034523    6.23924265449838
C        14.36203162949684   10.59454847230132    8.07076244456645
C        13.80732776057140    9.60008877220717    8.89010973075674
H        14.30650772497122    9.29512081821698    9.79576784896066
C        12.61830626303614    8.98887678021576    8.55738846845438
H        12.22605889094370    8.22031405547153    9.20873967813181
N        15.56518944840194   11.18722687874562    8.37438687136397
C        16.01032890070155   12.33003588603248    7.61441757424117
H        16.15022376227143   12.05795763874745    6.56585550233899
H        16.96861093579039   12.67004126461046    8.00039644137656
H        15.30084398368390   13.16469574954132    7.66790175367817
C        16.17018344358198   10.95859031880286    9.66388041170710
H        15.52127501410803   11.27765446272781   10.48871044946101
H        17.10338416616437   11.51335370884737    9.72894620995668
H        16.40241904900073    9.89900585251060    9.79315102588484
P         6.62521558918354    3.93213952343186    4.54381187686715
C         5.63921629490154    3.44117177679310    3.08923734457596
C         4.78278796433762    4.36693298522740    2.52480755218250
H         4.67501934583224    5.34492218675208    2.96867511595011
C         4.03169406694518    4.07392836664974    1.39403754562754
C         4.13384478871419    2.78622244537332    0.82990121884874
C         5.00361670451518    1.86840969303658    1.41126707003872
H         5.10625492175184    0.88216155248763    0.98646863371638
C         5.77973569441160    2.18191900868462    2.51541642017878
O         3.30558359265512    5.11953503838734    0.89541230940084
C         2.01202632381980    4.91010056770468    0.33400747351004
H         2.09494397069137    4.29442923163714   -0.56980356521942
C         1.08562198581164    4.22761915421350    1.33839202216378
H         1.46234788284517    3.23991312120673    1.59335587016460
H         0.08961698552870    4.12528056010453    0.91573946534005
H         1.02673402851134    4.81873696546467    2.25005149512233
C         1.49938871687126    6.29731372506159   -0.03998967097908
H         1.40773860614284    6.91223205912214    0.85184170829518
H         0.52802982244605    6.21839491240155   -0.51980401506917
H         2.19449207503412    6.77909775090093   -0.72252502064168
O         3.39467780781845    2.53206123025026   -0.29513347818807
C         3.25167338823005    1.20757426847642   -0.78593418634950
H         4.24118032742757    0.73946900067078   -0.89217097028000
C         2.37291829930666    0.36479966012999    0.13872400156167
H         2.79316677186664    0.32494388343853    1.14101476597060
H         2.29192521407586   -0.64738663033228   -0.24806241065713
H         1.37813677212933    0.80145392034771    0.19729236717251
C         2.62114792546144    1.34418256221568   -2.16882930984993
H         1.64202196039158    1.80897983560905   -2.08435244616871
H         2.51246133865295    0.36556234104367   -2.62740142167549
H         3.24666664024579    1.96739874400227   -2.80247886507192
C         6.50658497993913    2.45808858879568    5.60052441868241
C         6.22103411215668    2.69189299889008    6.94263880031532
H         6.08909671248090    3.72779163311987    7.25792129323374
C         6.08705504564351    1.64228983389748    7.83254499119859
C         6.22477471593534    0.31713250424101    7.34519025907889
C         6.51600208414036    0.10609329255993    6.00789043482352
H         6.60868818532209   -0.89774695089791    5.62705215956642
C         6.67821054865671    1.16651750852547    5.12143794372317
O         5.81257541512813    1.74907176572391    9.15381986928949
C         5.74539575859238    3.03171537385897    9.77067225414846
H         5.16246304554420    3.71870771493340    9.14196655207355
C         7.14513857075866    3.59702520806681   10.01178156287894
H         7.74752139983555    2.85804567925283   10.53618295343536
H         7.07954385877863    4.49618718809406   10.61745885229340
H         7.63803874921883    3.84699560600501    9.07462616942009
C         5.00942445375734    2.82683780761079   11.09059880343520
H         4.02162226729613    2.41267447570570   10.90702667801086
H         4.91038734081794    3.77732722919452   11.60671177744161
H         5.56408006931945    2.13318487107196   11.71691898766359
O         6.04528892154198   -0.65189063933012    8.28434139043266
C         6.17400433569256   -2.02154178970482    7.94346450159032
H         5.67380093798430   -2.21751276422696    6.98309309456269
C         5.45515071788861   -2.79798854561619    9.04302960748475
H         5.91935250679040   -2.58546735394451   10.00207972079586
H         5.50748231822030   -3.86508277397043    8.84592517131164
H         4.41337839477359   -2.49328098862059    9.09075437113709
C         7.64567278212113   -2.43255662263026    7.85746767920332
H         8.16875634552689   -1.85108278415399    7.10203127751030
H         7.72417900306395   -3.48692682380767    7.60597244959978
H         8.12801205819758   -2.25922370901358    8.81648233180767
C         8.24773402291699    3.66965311367741    3.73357378227783
C         9.13214917648621    4.72934282531057    3.60962123712146
H         8.82460705665181    5.70118818624390    3.97054428359552
C        10.38577434769225    4.54982174051495    3.03844503348516
C        10.73301192503570    3.26518156935253    2.56940322808269
C         9.80896193410706    2.23364158001738    2.64976306740369
H        10.07989515099119    1.27385142206344    2.23421351894068
C         8.56140601022624    2.41406929292522    3.22491670216198
O        11.32512312940157    5.52391241994520    2.89557838959086
C        10.97596483720028    6.89000928334991    3.08561752982216
H        10.40591406660882    7.00675842172315    4.01579404098887
C        10.16029843920083    7.40490567223251    1.90126870492088
H        10.72993374088288    7.28105888117149    0.98254559029478
H         9.92964635889845    8.45671390681217    2.04188331492674
H         9.22941488687212    6.84980338261370    1.80710316326396
C        12.28836225430335    7.65088475602276    3.23050480313102
H        12.84288687469851    7.27011732663187    4.08384696888430
H        12.08270081746685    8.70544079689028    3.38647127212971
H        12.89176509916005    7.52694624740331    2.33480989975229
O        11.91271427478168    3.01363997546253    1.92213319417639
C        13.12722427773453    3.18917074296820    2.65437757769712
H        13.07518088608618    4.11092774383073    3.24571205671855
C        13.34826070227202    1.99500293150902    3.58322508573147
H        12.65744782242056    2.03225011124429    4.42113645207363
H        14.36126348062946    2.00529409087460    3.97429633004593
H        13.19568996907613    1.07016456846807    3.02991067487771
C        14.23546054167930    3.30861045108137    1.61398106038319
H        14.28893604648093    2.39472226050884    1.02769704101896
H        15.19261538219146    3.47883944789427    2.09974474745185
H        14.02396422401337    4.13793264764751    0.94444587150731
Si        7.15626940560663    1.15155170726222    3.30079520911547
C         7.60994163764672   -0.43382235816681    2.41785852403262
C         7.97656964046126   -1.59997242110544    3.07527476299176
H         7.98873395096981   -1.62010857708783    4.15398348656866
C         8.34136380927329   -2.74163408348813    2.39424328239212
H         8.61430758458700   -3.61469561992815    2.96473346016706
C         8.36656583644465   -2.77078490001968    0.99263103100503
C         8.01175693257454   -1.58830888587447    0.32648984628324
H         8.02177938554519   -1.54322544402619   -0.75057966729160
C         7.65287106256182   -0.45824888989797    1.02784522448033
H         7.40785174172187    0.43902382241538    0.47846044126186
N         8.75331792195853   -3.89496106716581    0.30443990137900
C         8.95625813318868   -5.13603285103755    1.01028065938289
H         9.76386539835266   -5.03434754637705    1.73967338526459
H         9.24115133609306   -5.91240054501587    0.30399951856748
H         8.05066586076088   -5.46377514188583    1.53494010540128
C         8.63008166672044   -3.93825434932583   -1.13170700179105
H         7.59175420288104   -3.80848024742509   -1.46059729787535
H         8.98624359521843   -4.89872153848782   -1.49716604825264
H         9.24140624741865   -3.15798095310637   -1.59162116609352

