73
CSD_code = WEYWAA | q = 0 | S = 0 | Stoichiometry = C30H36Br2N4Pd | MND = 4
Pd        0.53951719403141    1.71587859750638    3.85538788052637
Br       -1.16195745086404    2.85011539854102    5.20047793224831
Br        2.45103720249143    0.63015693260837    2.76928768658962
N         1.31811066847247    0.29892638844333    6.30213400076973
N         2.37406783839430    2.20434959120166    6.21439292306878
N        -1.11058334034668    0.75858968842243    1.58333222816618
N        -1.09576627388965    2.91876199427586    1.61049549519388
C         1.50199341157472    1.41523721627430    5.57115054102276
C         2.08967412930701    0.36356888046005    7.44265506653292
C         2.27332970285753   -0.50438932662962    8.50903604867613
H         1.76612142074880   -1.45348670273577    8.56648003627693
C         3.13856567744954   -0.11490723572518    9.51234646179818
H         3.30006196997761   -0.77074807202671   10.35420349901611
C         3.80574100131255    1.10513899767491    9.46195009551261
H         4.47218096972337    1.37605041926514   10.26655561200444
C         3.63457862823163    1.97709921041729    8.40469368277306
H         4.16099476746182    2.91733530164077    8.38617214201704
C         2.77054431651689    1.59723738297873    7.38806484917807
C         0.41654647817635   -0.76478903333216    5.88627474801095
H        -0.02676677767617   -0.41961310207352    4.92680545338829
C         1.18417369525844   -2.05512242578760    5.61276510454343
H         1.97506862177817   -1.87044367338545    4.88760752737270
H         0.50614981603518   -2.80013937205491    5.20401162187471
H         1.63179379117500   -2.45125551898094    6.52008113845979
C        -0.72095944227574   -0.93827478216293    6.88856473490621
H        -0.35701000215777   -1.29636542168256    7.84740592728155
H        -1.44081478997586   -1.65296968678356    6.49776382810677
H        -1.22710910935154    0.01321425373486    7.04177137107494
C         2.78737839205507    3.48802982222294    5.67708218373738
H         2.24706545323662    3.59126323962355    4.71442025371480
C         2.34672808513278    4.62171161529163    6.59801956664354
H         1.26990907268462    4.57770686786295    6.74988825272180
H         2.59117957296160    5.57581079747111    6.14074747106047
H         2.83735980345005    4.56108202816840    7.56567893627765
C         4.28595503942535    3.48748392365566    5.39174858221500
H         4.86290156879781    3.35232558020626    6.30246144766075
H         4.56948519789853    4.43100373835787    4.93595258069829
H         4.53089580822653    2.68234114081380    4.70174482394429
C        -0.59937035607207    1.82940943437637    2.18913418286298
C        -2.06179048342933    1.09268254937299    0.53137716223845
H        -3.03827432436699    0.64989895448097    0.75301395191226
H        -1.71096437831125    0.69933999261807   -0.42907692721691
C        -2.07756464761144    2.62188163895995    0.57434394192033
H        -1.77492775578288    3.07714060202093   -0.37436803049892
H        -3.05639595849421    3.02372746052833    0.85784771878783
C        -0.85651803585269   -0.62567556466176    1.89336296011127
H         0.06881108855010   -0.68124740918450    2.48626635194829
H        -0.68828743112450   -1.17145491636797    0.95824035594306
C        -1.98702779725127   -1.25386427176091    2.67170778923224
C        -2.48578826830102   -2.50250775662701    2.32945980409735
H        -2.07074650540212   -3.03145010863289    1.48318254632417
C        -3.50646497935109   -3.07314286551126    3.07025323812214
H        -3.88745463799104   -4.04609046365927    2.79703813952402
C        -4.04152316027719   -2.39802480881029    4.15421152998255
H        -4.84020465468099   -2.84379459748227    4.72840111920152
C        -3.55064843277599   -1.14978350170416    4.49895314493112
H        -3.96208697492323   -0.61453794473048    5.34149611713645
C        -2.52707089530875   -0.58317268169230    3.76189625834105
H        -2.14887167692637    0.39555654823909    4.03515480088089
C        -0.88061571971718    4.28050104456502    2.03176839238295
H        -1.52583000601457    4.51558780863024    2.88986046864187
H        -1.18074029373656    4.93079280506189    1.20011626811350
C         0.55546434773834    4.59898469613049    2.37930450517947
C         0.81689989812876    5.68259005622259    3.21351357490511
H        -0.00496860544725    6.19511673121596    3.69231168413502
C         2.11467524653398    6.12001976307452    3.40919346355559
H         2.29878324271992    6.98500543109580    4.03004626706315
C         3.17096521848245    5.46292374502282    2.79934924248413
H         4.18244159835138    5.81724997243848    2.93509329418660
C         2.92557710959386    4.35751474427472    2.00326326872765
H         3.74286422604736    3.82895550825287    1.53606473728861
C         1.62403134106097    3.93319601916984    1.78081468095827
H         1.44648055362877    3.11865673124413    1.08969226156999

