75
CSD_code = WEYWUT | q = 0 | S = 0 | Stoichiometry = C29H40HfN4O | MND = 9
Hf        0.69202137668072    7.21859751937828   17.19638527776062
O        -0.05636448899112    5.45274452915345   17.47227531706408
C         0.83051125649215    4.50877508280588   17.94417255615324
H         1.40830407687533    4.06764822670682   17.11263401544779
H         0.28244591306041    3.69258243166658   18.44608526944033
C         1.84008125195969    5.13294228617753   18.95611684951263
H         2.67966013423165    4.42974097017215   19.08467753538467
N         2.24262436046860    6.38149590520108   18.32875317751774
C         2.53353528535527    7.46185701150312   19.05725529514804
N         3.27346429260452    7.40917298024317   20.20689414018860
N         2.01611936304922    8.58941664709454   18.57732890100517
C         2.64506423875107    9.81339620734620   18.81028331448952
C         1.89041866587619   10.96350760174034   19.05793228622511
H         0.81922989591799   10.87655479993686   19.14504076007247
C         2.50281121401702   12.19236092445129   19.20768932397165
H         1.89867254354869   13.06807982780531   19.39783909607514
C         3.88034742331889   12.30943975217730   19.12184821295417
H         4.35530793381965   13.27233459999701   19.23508146310790
C         4.64205093050525   11.17552063137885   18.89288205595241
H         5.71846422485909   11.25229292217575   18.82720522522862
C         4.03765321609724    9.94346057904150   18.74232551048672
H         4.63820215106946    9.06452997432591   18.55629966971970
C         3.10107789914401    8.34590894422545   21.28845821070922
H         3.96235813783357    9.01651841350400   21.38014337502182
H         2.98207865068552    7.78861946998106   22.22227146591905
H         2.20768082984756    8.94159875606760   21.12238541301352
C         4.23609100304268    6.36487449654442   20.44844885803276
H         5.15713506131364    6.81648013642239   20.82800319624171
H         4.45876651347845    5.85215459846234   19.51613021113017
H         3.87346653481005    5.64055763983168   21.18562313965817
C         1.14781641502089    5.33786717685373   20.27979216061200
C         1.41290195122555    4.49827849391121   21.35570914644033
H         2.12770412108236    3.69395501513494   21.24264690251175
C         0.76915000553051    4.67895295784017   22.56757249452625
H         0.98911914820683    4.02161036942354   23.39642826615594
C        -0.15248146063884    5.70067073132366   22.71644275634949
H        -0.65209643444905    5.84596542273025   23.66288432221108
C        -0.43445840740567    6.53016456253162   21.64319134425949
H        -1.16189197056673    7.32117188631384   21.75177665433120
C         0.20750272402946    6.35370470460417   20.42937722582501
H        -0.02020311399615    7.00033158940537   19.58299007035105
C         0.57161630339141    6.61042255310914   14.82873142619941
C         0.20282271701824    7.98287996397691   14.92746596186070
C         1.35352751706144    8.71988958505447   15.33246151212174
C         2.42193846409667    7.79931659083251   15.49127158183700
C         1.94144444460171    6.49812436287445   15.18757553018675
C         2.82061088498845    5.28553057275831   15.04336587928312
H         2.22822793718737    4.38951984279628   14.87102750968858
H         3.43340432056282    5.13288643821397   15.93288818033493
H         3.49751364053212    5.41185572213047   14.19395666833038
C         3.86728989329675    8.14292095164830   15.71441328442129
H         3.97378222458870    9.16048962591949   16.08303981419067
H         4.42477495300198    8.06257677887385   14.77722411247106
H         4.32800337726577    7.46204370635492   16.43125260717054
C         1.51168553792661   10.21697286563203   15.34345564964282
H         2.01167784841800   10.56421756413548   16.24843146227424
H         0.54877021599514   10.71731892093849   15.27111093473860
H         2.11420959824692   10.53593654783840   14.48944317732421
C        -1.11654885633120    8.54074867886542   14.46516958283022
H        -1.95026411299238    7.99629143524085   14.90796447911394
H        -1.19958099161098    8.46234272118732   13.37800059295162
H        -1.21267718096142    9.59088005486723   14.72884048514175
C        -0.31092836765182    5.50221933240780   14.31975364871457
H         0.25193482880921    4.83331118285876   13.66852410400092
H        -1.13973713844672    5.91211656982618   13.74656266637122
H        -0.72125021890816    4.91603717948683   15.14473846271238
N        -0.99793204903230    8.13607244102100   17.75463211992018
C        -2.23027677577900    7.43531817504977   18.05850474528730
H        -3.02903975909878    7.70775033896055   17.34691803904756
H        -2.60391625072074    7.68603902071890   19.06724714281540
H        -2.06470452686697    6.35909632735585   18.00284450402362
C        -1.22060690927734    9.56468670069174   17.79440831850671
H        -2.06427069572919    9.85615921334610   17.14490665809650
H        -0.32806023239445   10.09323067036536   17.46020523565776
H        -1.47778350896256    9.90726058906826   18.81418345651580

