69
CSD_code = WEYXAA | q = 0 | S = 0 | Stoichiometry = C30H33BrN4Pd | MND = 4
Pd        0.89257357696040    5.15837642490266    4.11959369396000
Br       -0.83164637017064    6.93873227702727    4.35494484883964
C         1.91484214525062    5.68660162073492    5.76560656796613
C         2.69047974908833    6.17493461580030    7.80237594818911
C         3.78819352706313    6.08545012282636    6.92732770456929
C         5.08252677661244    6.29732720750316    7.37742407263812
H         5.93218038792116    6.23471805419155    6.71527735097337
C         5.24654863907908    6.59576134050344    8.71631046477169
H         6.24050532333700    6.76605896535844    9.10096448213956
C         4.15906435682794    6.68500402476836    9.58306847218828
H         4.33329282647065    6.92352547550000   10.62111264182909
C         2.86570777593504    6.47620777927962    9.14446948792263
H         2.02903637248099    6.54876296902412    9.82133125517598
C         0.23748488444517    5.82522183339363    7.59598883031314
H        -0.48345440475340    6.00991884564309    6.79727514280508
H         0.12150427568519    6.60766718126077    8.35068383239946
C        -0.00786676503862    4.45014797172077    8.22371967101589
H        -0.95630636652719    4.48948594473914    8.76308765252406
H         0.78360333654762    4.24088241132173    8.94888053941993
C        -0.06159422806944    3.31849374215284    7.19623765961909
H        -0.15942171991201    2.37516804003622    7.73934980728809
H         0.88101515061124    3.28021548203812    6.63435696640814
N         1.56765064763582    5.92171970972817    7.04700703922576
N         3.26190082927403    5.78831521583078    5.69351226922972
C        -1.22853070200849    3.46981327213321    6.21784941723186
H        -2.10902341110288    3.86139539861805    6.72326284434139
H        -1.49362335546517    2.50395605563057    5.79069537987592
H        -0.96314634831288    4.15354569419796    5.39434109905046
C         4.00827076051255    5.43895712781980    4.50334990144858
H         5.07440712062924    5.51802984569924    4.72180335229638
H         3.76151997418194    6.15117036484094    3.70007803997048
C         3.64274626421327    4.02966325933977    4.07885292984619
C         4.62135916000220    3.05818229803022    3.92815273359491
H         5.66084516591067    3.30649730996317    4.09601558194746
C         4.26930164383995    1.77255569379910    3.55727878823185
H         5.03000039071841    1.01508907270684    3.44003388638896
C         2.94038585881231    1.46354746714890    3.32517923476544
H         2.66437752534900    0.46315134363476    3.01968062558339
C         1.96258184888955    2.43412508628944    3.48252681752247
C         2.29625760483832    3.73057741232387    3.87551079916803
C         0.51175398272168    2.13590465868067    3.15406467748258
H         0.40006890257515    1.13582327901864    2.73255939049426
H        -0.10423244000697    2.21327440485644    4.05855429727570
C         0.17625337511094    4.43625810880656    2.40129728986542
C        -0.34314687037326    4.13587742226831    0.25143669963199
C        -0.26123475214885    2.87168966989199    0.86717491760118
C        -0.49497093283106    1.70802992239316    0.15104575289927
H        -0.43626742222741    0.73571256688126    0.61509623980295
C        -0.80977701816789    1.83896164962879   -1.18774794816904
H        -0.99719132939362    0.95345293933018   -1.77558736366445
C        -0.89346320816965    3.08896077581575   -1.79723292047841
H        -1.14588785929027    3.14671583082397   -2.84494985861665
C        -0.66294167499558    4.25474389249269   -1.09257495429084
H        -0.73525228959217    5.21655856581834   -1.57578206128281
C         0.11971097256702    6.48400187620657    1.02460736108976
H        -0.57661528551528    7.02736736125424    1.66955990006261
H        -0.11060774212698    6.71395835399227   -0.01710282293133
C         1.56205006748821    6.88713709928028    1.35400481617966
H         2.24180498617779    6.28665118721335    0.74019897925697
H         1.75308367984690    6.65007885700116    2.42317844912312
C         1.83315695088674    8.37310387920055    1.12836247685140
H         2.91457846580022    8.53290750937374    1.14255615939771
H         1.47187166983150    8.66398257286425    0.13866147472077
C         1.18863345347430    9.25127256529091    2.19374343467072
H         0.10508004010250    9.18919618849415    2.15763889527149
H         1.47541761246726   10.29077595687607    2.05438613651448
H         1.50660946916732    8.93749192299378    3.18649361011968
N         0.05639153403041    3.10944382526733    2.18294309893650
N        -0.05662656525171    5.06221320051107    1.22839603953814

