71
CSD_code = WEZDIO | q = 0 | S = 0 | Stoichiometry = C36H31ClNPPd | MND = 4
Pd        9.72253515521907    3.28587802210045    2.96188407230200
Cl       10.93088790312466    1.32917774446236    3.47484125798878
P         8.38227539201742    1.83186172001430    1.94724369181614
N        11.12188705470736    4.59289043911689    3.82491721087972
C         8.63124536531132    4.96358581810439    2.86437660504426
C         7.25005352555022    5.10840285833929    2.84471980858583
C         6.66329943157426    6.35897042976645    2.98245176959259
C         7.44606102898552    7.48474841464571    3.16339144914738
C         8.82374169546878    7.35813487145174    3.23077880230120
C         9.40598420758575    6.10929454184385    3.09170916257747
C        10.90044287172882    5.89192929060639    3.14961548396243
C        11.41457526142339    5.86579700260525    1.70660963425884
C        10.73079734797685    4.67148641679552    5.23562824530761
C        12.51538277000307    4.15741266087969    3.75347765631752
C         7.44108743442402    0.51181442948477    2.73975277702634
C         7.93674619526686   -0.39756426263146    3.67911854146801
C         7.12961859105555   -1.41549452957721    4.10650159491496
C         5.87141776764728   -1.63502664707753    3.50483165372391
C         5.11111515064203   -2.78140765868355    3.81948833548162
C         3.96308156354437   -3.07471452884211    3.13969657782200
C         3.54624675925533   -2.24865150385092    2.08595724572313
C         4.23462805236707   -1.10600363432046    1.78525675559431
C         5.37911302013921   -0.72904251860603    2.52116395832064
C         6.13474864628021    0.44457075226050    2.25183298374995
C         5.78529576044133    1.58886103785618    1.41226755468028
C         4.50352543958476    2.09615024931645    1.06313241586769
C         3.31004519937199    1.72452806489954    1.71853088784647
C         2.10465201299437    2.24977712324620    1.34208134559479
C         2.02821333666169    3.17265257870718    0.28939724146939
C         3.17278082642900    3.61302634448615   -0.31300142714983
C         4.43699245245871    3.12662123176436    0.08127346291900
C         5.62161738928365    3.69814668564230   -0.43422706985555
C         6.83791472070120    3.35005686195054    0.08308833596496
C         6.90816265106142    2.30659822584819    1.00997310196241
C         9.37974255631788    0.99427341771660    0.67483629513445
C         9.04489749795676   -0.23971693504139    0.13324365248012
C         9.84218129218446   -0.79071706321562   -0.85455510810824
C        10.96154427972166   -0.11311596507227   -1.30880835582138
C        11.29141521283863    1.12325975704059   -0.77595565492280
C        10.50168805570432    1.67588068323424    0.21383772646763
H         6.60857515444729    4.24365746785817    2.71973740295101
H         5.58642782474490    6.44901079799866    2.95126916401088
H         6.98735362425953    8.45737126858941    3.26678156875308
H         9.44407729235477    8.22885289124144    3.39835568784430
H        11.41135803040425    6.69495978999557    3.70754993539737
H        12.50038536059979    5.86474203413772    1.65025128724250
H        11.01330499187568    4.97452154526069    1.20444337956845
H        11.04489748193277    6.74499573098307    1.18322606874529
H        11.42391524506250    5.31395471725100    5.79749287463032
H         9.72121669375390    5.08052945357776    5.32937894107092
H        10.75037065527099    3.66644249060411    5.66991560753288
H        12.63594844939654    3.24778967675182    4.34318592921237
H        12.79394988048611    3.92012580653088    2.72633216527755
H        13.18743925486169    4.93211305815880    4.14712773146651
H         8.94187547787384   -0.27092211926397    4.05493841685581
H         7.46763339888353   -2.10404643008392    4.86712324346607
H         5.47483525158850   -3.44130966434352    4.59414766427789
H         3.39208077488055   -3.95855308025474    3.38322129376955
H         2.68007903757609   -2.52564216267903    1.50314610413907
H         3.92751346807949   -0.50173288981874    0.94574020179319
H         3.36066146039546    1.04649546204038    2.55634367060177
H         1.20387874391686    1.96135298304466    1.86356147060256
H         1.06581838624205    3.55711884398827   -0.01475083648787
H         3.13150067068620    4.36823956840206   -1.08495040074029
H         5.53981912368838    4.46570999274353   -1.18995782992545
H         7.74798467993551    3.85984449583824   -0.20480643368874
H         8.17362761604564   -0.77013698391925    0.49135478462879
H         9.59066034998497   -1.75606391314443   -1.26905904718518
H        11.58267595919855   -0.55177050246392   -2.07582900166404
H        12.16767380789409    1.64783846371779   -1.12831497237898
H        10.75742097863960    2.63927877999291    0.66848424980952

