46
CSD_code = WEZGUD | q = 0 | S = 0 | Stoichiometry = C18H26BNb | MND = 13
Nb        1.32332115387803    0.03650065769214    9.32192170219384
C         1.57325610334152    1.66843151093524    7.54897759367294
C         2.80855009642179    1.42724144064304    8.20759574006128
C         3.24797224146171    0.12353994200563    7.85423096912820
C         2.30690902587742   -0.41113719785312    6.94841592718068
C         1.28277080039809    0.53359146629047    6.76184588391571
C         2.20820503723260    1.35248550342949   11.01542809995076
C         0.80735315389241    1.55343340706167   11.13699844927301
C         0.25399301918063    0.37181421218913   11.67570738040541
C         1.28990350494006   -0.56022352737545   11.86110068851501
C         2.50099838959404    0.02892558073549   11.43999233315975
C        -1.08164828432321   -2.44844567499238   10.05553148580207
C        -0.68592921628561   -3.93585927166949   10.08864074147648
C        -0.75180029159915   -4.65582644525136    8.74089838607692
C        -0.16373114988853   -3.85574689428338    7.57771551872141
C        -0.56030049600540   -2.36872222298967    7.54160373192443
C        -2.05136456129152   -2.13108578954491    7.24081314662292
C        -3.01679752892239   -2.58151352441293    8.33844258544218
C        -2.57204256968325   -2.20875969453293    9.75365732530185
B        -0.18539637031197   -1.68325617295736    8.95339591823699
H        -0.42033500115929   -0.34185257737537    8.94578133842205
H         1.14580028339276   -1.77497115810729    9.22819726598776
H         1.06604543304689    2.62300102129721    7.48850476924641
H         3.43829422423193    2.19519676089656    8.64183017043232
H         4.22550509971551   -0.29165778740443    8.06442888500770
H         2.40615995616222   -1.35152626501859    6.42183340451991
H         0.45755343487463    0.44557301255985    6.06708563314243
H         2.93963209764556    2.14594174423624   10.91402179031175
H         0.29525486587143    2.50288881549537   11.04549776969013
H        -0.77734820356631    0.24216121888081   11.97730799357417
H         1.19288944667456   -1.53225875548032   12.32715600028192
H         3.49093010113672   -0.37350093599537   11.61368238168523
H        -0.92104043918693   -2.07556209339468   11.07678530961063
H         0.34337590037615   -3.98419315448007   10.45839229651874
H        -1.31635323993408   -4.47415015161000   10.80321575133999
H        -0.20059163360579   -5.59764454330294    8.82555902826019
H        -1.78185825866909   -4.92550112684233    8.51793834557987
H         0.92820285271305   -3.89366540823005    7.64661356145933
H        -0.44995334306141   -4.34165111480269    6.63975242510951
H        -0.01317414012401   -1.93514336437910    6.69277605060642
H        -2.17838837429515   -1.05473578562968    7.08656493141195
H        -2.32771723180693   -2.63059197453919    6.30699019053777
H        -3.99136729922654   -2.11988954805004    8.15079139498774
H        -3.17250003621219   -3.65626362184968    8.27319128879747
H        -3.19109044664484   -2.75802865049839   10.46987453113976
H        -2.76144810623222   -1.14156186144001    9.90771388528380

