67
CSD_code = WEZGUG | q = 0 | S = 0 | Stoichiometry = C33H19F9IrN5 | MND = 6
C         2.77332494097650    2.73393358573683   11.93933117954474
C         3.69191109588756    2.49622986056379   10.77719750135330
C         4.41885820675646    1.31531612913466   10.68834096841050
H         4.35605900213988    0.57843372707147   11.47369203600087
C         5.22156274237336    1.10556172203023    9.58561039492430
H         5.78413370727368    0.18730841228049    9.51728326704680
C         5.28841353439736    2.06267060157284    8.57464957839580
C         4.54966989376187    3.26702634227786    8.64652285227625
C         3.75610370513021    3.45494448558297    9.77424905906966
H         3.17503370641746    4.35941285185232    9.88820771759829
C         6.10448951893032    1.92143358655522    7.37284958356650
C         6.98944992310249    0.87393201734048    7.12381717449941
H         7.09656185628736    0.07862895939815    7.84290363718415
C         7.73866959867163    0.86590514822330    5.96313285595143
H         8.43170223806064    0.06348042214040    5.76287575097350
C         7.59144075073042    1.91635835566007    5.06796285468935
H         8.16496065783275    1.96014345128827    4.15675808834648
C         6.69557192361512    2.92386309892853    5.37034827253682
H         6.57167060819518    3.76497564875458    4.70315294875946
C         9.69451202446401    6.07391158957549    8.65343752753813
C         8.23362922025036    6.36148901983382    8.46063593810505
C         7.72830426850046    7.60587184178778    8.81863180820005
H         8.38928124480864    8.36960247203058    9.19788064027805
C         6.37830869399093    7.84797385607746    8.67524303951031
H         5.98954647111353    8.81538459068535    8.95158118915345
C         5.53604701153363    6.85466916049356    8.17784981659720
C         6.04074075336288    5.59112401097178    7.80557427902825
C         7.40289396689535    5.36692168657093    7.96375992882536
H         7.84071168861859    4.41508328180508    7.70042429497347
C         4.09752816347335    7.01209392046527    8.00950113203885
C         3.38240331282535    8.17611237487227    8.28879535065047
H         3.90194655904746    9.05287982024461    8.63739446790553
C         2.01388662080574    8.20581942625914    8.11006883072171
H         1.45085864640462    9.10268714761323    8.31698387021339
C         1.37654431317583    7.05665508175954    7.66181744160952
H         0.30880746117698    7.02834666228222    7.51673307545608
C         2.14206342618449    5.93849345838093    7.39635856100513
H         1.67121029198932    5.02890083511693    7.04763386769052
C         5.19450985726530    7.71024963578493    2.54661230805992
C         4.72568340725625    6.58664778140564    3.39170765619642
C         3.75012844665268    5.63973633284603    3.09258652834610
H         3.16732701273299    5.56524111094965    2.19825202481229
C         2.93557442269619    3.69818320667807    4.61432183336902
C         2.02684358958825    3.08301823678202    3.74612444822822
H         1.90458183708963    3.47023556075563    2.74769103642088
C         1.30788275604253    1.99245947402607    4.18462678197515
H         0.60145449868225    1.50210240181698    3.53180177120463
C         1.50693135578869    1.53322155730290    5.48266224852913
H         0.96387444607186    0.68452829616670    5.86503310572269
C         2.42049808974857    2.19266167883668    6.28220911520068
H         2.60150806029670    1.87316754575559    7.29984423428676
C         3.72176784888934    4.84011340948691    4.23894465118345
F         2.79688964594390    4.00503340525859   12.37418752750555
F         3.03907817229656    1.96221453701552   13.00240829180979
F         1.48347695086550    2.48458244368750   11.61304745418898
F         9.95922265089052    5.61178041243712    9.89576197459339
F        10.47264878901244    7.15496551357267    8.49166752831805
F        10.16437656811221    5.13823850965030    7.81081119823467
F         5.08062117211318    8.90994318054920    3.14630158602281
F         6.48599066880524    7.59869654860697    2.17985217021672
F         4.49178370489417    7.79982031976502    1.39962170736429
Ir        4.65994799206902    4.38791695094957    6.97192534849160
N         5.96202311556527    2.93147736162924    6.48205796253117
N         3.46430006851422    5.90609896308423    7.55235598541856
N         3.11722901681556    3.24472018494649    5.86976055363076
N         4.64126268600969    5.32490106248062    5.11288418050736
N         5.24257142013186    6.36866573455415    4.61224800700461

