62
CSD_code = WEZNOF | q = 1 | S = 0 | Stoichiometry = C28H28CuN3OP(1+) | MND = 4
Cu        5.54948861358418    8.49741161390821    5.55298867775836
P         6.07084502738497    8.39449418121749    3.35368385458529
O         6.05902267766263    6.78236294641908    6.72040360436433
N         3.47697462458651    8.21029823297589    5.47777852873992
N         4.22420133265689    5.48260498220556    6.44227506586075
H         3.57276058430137    4.85835988214501    6.89241009586637
N         6.11200773696597    9.77648373858739    6.85066245984359
C         2.69589750693042    9.28277908851287    5.46732691645445
H         3.13225545848055   10.18625970577190    5.86906150724242
C         1.40238450800648    9.26309123770640    4.97578962766135
H         0.80297196511924   10.15862263911609    4.98452394673467
C         0.90443543427063    8.07074555037734    4.47464900431710
H        -0.09753973124632    8.01290039142671    4.07878483301887
C         1.71566901700929    6.94729229922172    4.49951876478903
H         1.35839575998840    6.00106398689232    4.12512087044344
C         3.00154671278676    7.05606293051311    5.00815943329131
C         3.93482541792129    5.87296362904602    5.07579682606143
H         3.50692348339236    5.01944547493237    4.54793098252411
H         4.88807623143525    6.14741097991884    4.60678048916062
C         5.26308058082378    5.95392697322408    7.15208347228874
C         5.40200634942639    5.35867908008365    8.52780538124985
H         6.35710070911470    5.65073369810930    8.95430276171524
H         5.33943477161149    4.27395938418196    8.49088170393345
H         4.60412866641700    5.73039034230021    9.16846582370868
C         7.19346061562573    7.07716501189232    2.78531340494394
C         7.76778941722533    6.24568663540431    3.74138371447407
H         7.52579378620059    6.39294192461630    4.78669792784277
C         8.64499111425958    5.24864836072676    3.35100616139224
H         9.09183829134080    4.60290438909863    4.09204082501630
C         8.95170670896042    5.08329602852960    2.01054547584300
H         9.63651375762304    4.30661951850859    1.70602125698621
C         8.38609561466166    5.91724198949632    1.05740410085922
H         8.63184050374594    5.78940066392791    0.01398797460238
C         7.51105528205657    6.91629073920370    1.43930424401374
H         7.07303092014637    7.57084035578804    0.69938307270894
C         6.87958960996857    9.86502011500992    2.64625706177549
C         7.78929814774494   10.51991530022909    3.47204684799570
H         7.92994044117455   10.15942374403905    4.48429881588234
C         8.49303975518747   11.61230579294068    3.00133717358361
H         9.20105488289946   12.11762828862017    3.64099896906475
C         8.28606072383424   12.05920722803090    1.70586719666650
H         8.83320134293521   12.91283552709109    1.33605825864092
C         7.37453470317306   11.41476622352262    0.88511106915122
H         7.21231233346905   11.76748756661996   -0.12232883690974
C         6.67037703384417   10.31761641158829    1.34825161180916
H         5.95323261221849    9.82503463469724    0.70659927750944
C         4.58215478878281    8.18639954245070    2.33168174123551
C         4.22075802702509    6.96143694599657    1.78090121893713
H         4.89104052577946    6.11632280347874    1.85754610695631
C         3.01191173638305    6.83072527647710    1.12000653510494
H         2.74197540431200    5.88215443876690    0.68038865480084
C         2.15207696572549    7.91147634657205    1.01758578466844
H         1.21192370514999    7.80604852931615    0.49827626814464
C         2.50068703489734    9.13043399710477    1.57909303266900
H         1.83145692910754    9.97393257820982    1.49930855691508
C         3.70558476359756    9.26658741819789    2.24039368258624
H         3.98476354434473   10.21272234240901    2.68597087277010
C         6.81273288302012   10.05520202648380    7.71725140305176
C         7.66617089671247   10.44897589448884    8.78675619509453
H         8.42942552876250    9.68610401622694    8.94116550164609
H         7.08429346950202   10.56677605485311    9.70087632952011
H         8.14799275986843   11.39608237049894    8.54372788057918

