49
CSD_code = WEZPIC | q = 0 | S = 0 | Stoichiometry = C14H26Cl2N6Zn | MND = 4
Zn        0.84629742931854   12.27482888552503    4.33582345701555
Cl        1.90377527269673   12.39714702813819    2.34942963280608
Cl       -1.40252452315562   12.15421064545520    4.41919775432408
N         1.37122723280083   13.87086990546147    5.47780588558778
N         3.28843467495271   14.32260917843321    4.33218175021702
H         2.94734846466664   13.66542498115092    3.62832537639302
N         2.73397429915393   15.66334486110637    6.14949909780866
N         1.64320038128990   10.67676084736518    5.30507754490398
N        -0.22512572332270   10.22450246166270    6.52828185961513
H        -0.70843157824843   10.88277753017739    5.91449607420636
N         1.65234146594676    8.88451250918554    6.82449709410440
C         2.42783780832878   14.62760465516295    5.32164934109240
C         0.49735966811757   14.13962293698630    6.60468555525393
H         0.88327699676919   13.62942462192402    7.49760195000592
H        -0.48174623905102   13.72016110408765    6.37304479304005
C         0.40047146132712   15.63712290062973    6.86012572116197
H         0.00436401278617   16.12300667416211    5.96692443531144
H        -0.26148495420875   15.84964116700326    7.69846901900632
C         1.80232366204341   16.14724308263575    7.14921052525525
H         1.82217789689474   17.24312770414910    7.13672674091244
H         2.12918448203939   15.81419323400035    8.14465896043818
C         3.92437496898610   16.47285698423303    5.98561720586951
H         4.27486357063333   16.75739001889323    6.98419322987045
H         3.67588468957919   17.39553320788070    5.44020306618471
C         5.01209189559736   15.71265908026396    5.24271028212829
H         5.36487910264119   14.88124971814255    5.85464772444589
H         5.85051477094549   16.37355115880210    5.02724374182408
C         4.39785835686974   15.16330807864249    3.96328936602984
H         4.07862165517328   15.99000328190490    3.31257472318285
H         5.11185750408769   14.55154905064764    3.40875469602461
C         1.04093891301940    9.91954223218612    6.18662699531632
C         3.03858255763300   10.40787839209408    5.01121547547188
H         3.67332946829103   10.91848371717171    5.74805474045057
H         3.25768205686309   10.82712340352566    4.02914029936725
C         3.31146611570892    8.91052305196778    5.03531176337872
H         4.35502274732296    8.69842631395253    4.80660050857781
H         2.68153814367484    8.42452414107671    4.28842216869725
C         2.95850955145784    8.40035292697114    6.42249078513997
H         2.93833979789649    7.30448590088962    6.43392428382212
H         3.71121470635874    8.73267512191387    7.15167437265291
C         0.98073584753668    8.06976068860921    7.81672684147615
H         1.72359788434926    7.77884002338705    8.56801564375265
H         0.59767730065777    7.15081534745185    7.34818230933273
C        -0.16249817721473    8.82836020332835    8.47284769905001
H        -0.72398170645637    8.16536588199549    9.12963287231251
H         0.23436901737324    9.65682213530039    9.06134013274293
C        -1.04335538535621    9.38312856722567    7.36275154125035
H        -1.49128146416546    8.55924253069785    6.78878650950460
H        -1.85271608061298    9.99561192644033    7.76450845368415

