52
CSD_code = WEZQEX | q = 1 | S = 0 | Stoichiometry = C22H21BrN4OPPdS(1+) | MND = 4
Pd        7.55073592628868    5.30012948008465    4.70798279022330
Br        5.85896393437783    6.60477746247664    3.70574876204228
S         9.08948492698973    4.06503851418112    5.99913233615866
O         5.84445334449761    5.94094238660747    9.24503201036021
N         7.33859251370100    5.07054793471588    7.79561995640018
N         6.63507953104756    5.66661907453763    6.73280387079130
H         6.57594297361465    6.68806463999100    6.87175385103843
H         5.65638615840054    5.33899743057689    6.72402972838726
N         9.07447858194311    3.79334395833349    8.60341847973708
H         9.91100994919590    3.23550923447631    8.46372032487962
N         8.68256510041563    3.92672295411563    9.86723349905880
C         8.46035500839331    4.33241347222314    7.52373109971814
C         6.83502504210316    5.27631410894143    9.10362168824728
C         7.63721732279918    4.61408026541842   10.15219615284955
C         7.19797231315735    4.76643166773121   11.55609855402647
H         7.87265059814673    4.23493514235261   12.21874482429265
H         6.18350545383480    4.38484360341040   11.66856976489109
H         7.16735231662095    5.82317338839553   11.82023192661156
P         8.44237825623072    5.03330675238366    2.67806475589879
C         7.38756055889316    3.96881695747889    1.67074633551198
C         6.27509729463694    3.38444564174400    2.27278332424221
H         6.04537069685686    3.60439354021430    3.32200388755499
C         5.46857830965351    2.53189416629585    1.54171825979521
H         4.60078844377787    2.08308962707916    1.99982575680837
C         5.77517226104390    2.25843071810403    0.21764808066493
H         5.13945282900897    1.60138237202896   -0.35519700151830
C         6.90066491859843    2.81428549381779   -0.37135584342446
H         7.14374940647511    2.58277226714873   -1.39695015714631
C         7.71809848901877    3.66237765678797    0.35334244019671
H         8.61304057345749    4.07604741836059   -0.09026126210913
C        10.04780396267067    4.19162231601593    2.69934963877484
C        10.05580387906554    2.84442224120916    3.05967291587484
H         9.11996122068185    2.35296792952002    3.30090238264215
C        11.24924472921207    2.15099355278515    3.10119217558763
H        11.25786067874386    1.10717769741800    3.37540380151023
C        12.43599452333332    2.79855592811101    2.78840141076996
H        13.36821626214753    2.25617726044949    2.82122729235673
C        12.42875388655389    4.13781607399248    2.43397895039706
H        13.35355146666661    4.63750907230147    2.18962439381985
C        11.23747856697194    4.84185044150117    2.39078634972026
H        11.22881115486825    5.88621401066637    2.11219465129317
C         8.73811699484523    6.68860989639305    2.01562880528018
C         9.15568533533512    7.61827499465264    2.97139311153909
H         9.26239569562630    7.30075507258735    4.01788184098742
C         9.40825862879714    8.92254938770470    2.59790905184043
H         9.72797555897126    9.64653671687691    3.33160168582427
C         9.23283654252802    9.30349464291555    1.27434038940443
H         9.41991811789310   10.32526687998798    0.98318250330923
C         8.80135439150639    8.38554969264477    0.33205733061898
H         8.64943231311722    8.69310818652261   -0.69088062628557
C         8.55026637582559    7.07189986569479    0.69564537602759
H         8.19105668147303    6.36272081003867   -0.03443162748421

