51
CSD_code = WEZQIB | q = 0 | S = 0 | Stoichiometry = C22H20IN4OPPdS | MND = 4
Pd        3.43760478294699   24.07753263125532    0.70973442329180
I         2.55234249200687   22.31826767350612   -0.97692724229911
S         4.14340353362483   25.77574915456825    2.11538170792236
C         3.49764941138340   27.12409203512666    1.28469394559006
C         2.27974368829357   28.05873623478140   -0.58777532730330
O         1.68527169769567   27.87160847146393   -1.63247491288713
N         2.82813153506701   26.96382262049251    0.09091675745320
N         2.65687268393477   25.68679936922617   -0.49422728310052
H         3.13335232795930   25.66375744050832   -1.41291549508821
H         1.65527260970828   25.55577208849090   -0.71644557174899
N         3.65816064837506   28.30427800011646    1.81609975711483
N         3.17262514837406   29.37773641543603    1.22440324690569
C         2.52132005194005   29.31631739334510    0.10763879383180
C         1.99069931916079   30.56375090956476   -0.50846903607938
H         2.21351576718093   31.41040035773239    0.13271285372544
H         0.91487362256902   30.47454074775053   -0.65298349804941
H         2.44094264415580   30.71114020909409   -1.48942826514454
P         4.30011804768937   22.47544240761280    1.98195829984923
C         2.97727985006461   21.52621043205572    2.77302674148314
C         1.67865854457919   22.00986773224675    2.62972283994249
H         1.50067615608152   22.91088834564568    2.02844607346492
C         0.62737595855388   21.36010494813283    3.24914808815313
H        -0.38059990932523   21.72901924136000    3.13426722130487
C         0.87213383304233   20.23232657859547    4.01648465441575
H         0.05104153370196   19.71828841457023    4.49287116759928
C         2.16756253833644   19.76963622664796    4.18810564019843
H         2.35368749318821   18.90242294143883    4.80406603432607
C         3.22538408862632   20.41951041410298    3.57873639273452
H         4.24080908884982   20.08322391241804    3.73662149883734
C         5.33846397633167   22.95998295496089    3.38949176891110
C         6.71916090890361   22.80111991975190    3.39328320756308
H         7.21481834318072   22.33713419387522    2.55158695523750
C         7.45432420684253   23.23971131934250    4.48076830702360
H         8.52725358095005   23.11659014769461    4.48526884658851
C         6.82036480535908   23.84096636513923    5.55517213146704
H         7.40044648959750   24.18877643286488    6.39670961321511
C         5.44340712870172   24.00423918576839    5.55013860652827
H         4.95093182612407   24.47989191481908    6.38480114899108
C         4.70219289692995   23.56696185195350    4.47047547979738
H         3.62737408521373   23.69896732904942    4.44858517293298
C         5.38801842675695   21.48224866637258    0.92718220255155
C         6.09564601588816   22.24386941218986   -0.00573232193283
H         5.93663906509695   23.33085928257554   -0.03591714347352
C         6.96079124663119   21.62882367826083   -0.88745395089858
H         7.50686168667980   22.21399831696908   -1.61205102254014
C         7.11038720821097   20.24952798246911   -0.85071524261572
H         7.77701791566702   19.76441990724338   -1.54740253351978
C         6.39362353658754   19.49262878496180    0.05967889434584
H         6.49856171472101   18.41819604514019    0.06918725709366
C         5.52952541557441   20.10336106598243    0.95460686152747
H         4.95288033224696   19.50808189532626    1.64614625479292

