70
CSD_code = WEZXEG | q = 0 | S = 0 | Stoichiometry = C32H32NP2RhS2 | MND = 6
Rh       -4.17224421534868    0.00361048320544    4.80930156782186
S        -3.29089839366666    1.63397354464984    3.25308877378464
S        -3.21748627585540   -1.92731692389767    3.74270749076493
P        -1.44120584848832    1.21994094290214    3.88931141472157
P        -1.74106154966685   -1.20572291244555    2.60336278308702
N        -0.75150795076095   -0.14590433856272    3.33458671082695
C        -1.33495985459923    1.20473145814209    5.71278351177474
C        -1.23698946127701    2.39603126481590    6.42019846622080
H        -1.21045177899152    3.33519049151634    5.88242585879835
C        -1.16358234193879    2.36553754564549    7.80104657076861
H        -1.08053376054337    3.28855616621358    8.35652932108893
C        -1.19423948376972    1.15175520510896    8.47160476143920
H        -1.13303066080733    1.13340550475147    9.55019901499824
C        -1.30250580080466   -0.03567693911217    7.76444085704628
H        -1.32219569748002   -0.97900408574193    8.29034833483683
C        -1.37660355046290   -0.01266521154265    6.38251944838901
H        -1.42022739252397   -0.93358719859174    5.81187844600659
C        -0.31679297259947    2.53859281492700    3.35952155257939
C         0.98237154315131    2.51867604646800    3.85054056393356
H         1.26054102293397    1.76495869547757    4.57483600442876
C         1.89621884282783    3.45513733531633    3.40633056614988
H         2.90724089242957    3.44725552193756    3.78716529852306
C         1.51464870229734    4.40332754914780    2.46893896207445
H         2.23045343960096    5.13464231110740    2.12270443197601
C         0.22174367872712    4.41353454329615    1.97227703901194
H        -0.07073020649736    5.15009944591733    1.23820290854419
C        -0.69773791182312    3.47848740615995    2.41502061278830
H        -1.71162407898071    3.47057222787989    2.03857024765287
C        -2.38763060263107   -0.51881903656247    1.04165925093479
C        -3.71329657800813   -0.67476396058872    0.66831341245018
H        -4.39219405800197   -1.21314974314842    1.31741048612515
C        -4.15765908017216   -0.11132443172079   -0.51426704415600
H        -5.19157012500213   -0.22163844105432   -0.80699683958211
C        -3.28106092164952    0.60162903030495   -1.31511187994749
H        -3.63274865769763    1.04692960758465   -2.23450140644841
C        -1.95575379853257    0.75558580839706   -0.93791131768998
H        -1.27585410537052    1.31842123893253   -1.56113758565290
C        -1.50514462528901    0.19393759267759    0.24111727868967
H        -0.47872429468766    0.31426160116162    0.56269619282544
C        -0.68393853220264   -2.57927002924251    2.10436637860578
C        -1.20154695614596   -3.54627835915999    1.25287046397098
H        -2.21433666473038   -3.44383988615817    0.88585041643517
C        -0.41812150850136   -4.62486666940320    0.88866831982814
H        -0.81317691736510   -5.38044969575857    0.22535458541906
C         0.87509895991396   -4.73589846573679    1.37640653100104
H         1.48598545782369   -5.57980415714135    1.09051551878748
C         1.38621535561301   -3.77127850763870    2.22955940805244
H         2.39397619974592   -3.86365019414869    2.60810488198339
C         0.60609139957116   -2.69011689094021    2.59866303877145
H         0.98036627593965   -1.92230998625209    3.25975994537835
C        -5.59681290572606   -1.40953054268625    5.54078160452099
H        -5.46500002318714   -2.35782767065452    5.02097530227895
C        -4.69695901434310   -1.11133806620576    6.56050006413978
H        -3.90316454284182   -1.83731425920456    6.73565300084777
C        -5.78104123643635    1.36145341839678    5.20059320417402
H        -5.87591419636939    1.99245581936180    4.31680892799180
C        -4.73292322410006    1.62638350653744    6.07761652138819
H        -4.09668050694123    2.48396211081526    5.85908503852274
C        -7.05492968315470    0.67236069246699    5.63708089535478
H        -7.23470692698096    0.89039211738339    6.69053966773426
H        -7.89394094031250    1.08143169998019    5.07141901397658
C        -6.99077271412606   -0.84611427900202    5.40510864282646
H        -7.65904224276336   -1.36743270607932    6.09921438444373
H        -7.33942902891603   -1.06498461316000    4.39293510315503
C        -4.74250902528420    1.23785121481355    7.53723140222766
H        -5.47673262258693    1.85650586042026    8.06534546666325
H        -3.76354030156561    1.47120754535320    7.95803751085572
C        -5.04811111516474   -0.25529098970058    7.76002517191917
H        -4.47806641280964   -0.60576151134303    8.62215255645973
H        -6.10530849410380   -0.39755466658821    7.99106496469032

