81
CSD_code = WEZXAA | q = 0 | S = 0 | Stoichiometry = C36H40N4Ti | MND = 8
Ti        1.62329670382943    1.86852907125986    4.60987744339666
N         3.11694381164800    1.47474219336004    3.58912106818480
N         0.99382258891359    0.14104311924580    4.33565304088624
N         1.90284456271665    2.30569409755860    6.39383252078601
N         0.42123372268589    3.26996052042912    4.46344598176374
C         2.12339181853598   -0.61320411396048    4.03680906316224
C         3.22937478168700    0.07979786205680    3.63615404161942
C         3.61644163945994    2.24159754884082    2.56607281087954
C         3.90348859219472    3.60322829592232    2.81580460711833
C         3.81274292711575    4.13879800206212    4.21856834730774
C         4.30121650814928    4.41140262963967    1.76673031333772
C         4.44628185747991    3.91090700493203    0.48176273306618
C         4.20810045340431    2.56852207111059    0.24176185401238
C         3.79999316461119    1.74073690391938    1.26779769168845
C         2.14415323153934   -2.09510856759572    4.31214779689563
C         4.56777290562465   -0.56892130159593    3.39797674720219
C        -0.31096993189629   -0.29025504608120    4.32521293086888
C        -0.89200556657782   -1.07690011905443    3.30889501292730
C        -0.11237942615614   -1.51694203714168    2.10259468150760
C        -2.23890503635840   -1.39493750396407    3.40201886694886
C        -3.02825211939547   -0.94775009860187    4.44694724807773
C        -2.46800587324939   -0.14519764544836    5.42935127080269
C        -1.12831587420507    0.17332654900346    5.37241347321523
C        -0.00745980372182    3.51433875994117    5.77382672330589
C         0.76103156894141    3.00038641833937    6.77868414429544
C         3.01785206758733    2.06990890438093    7.16333757610362
C         3.67545927245115    3.04230573683206    7.94469805333044
C         3.20475682257802    4.46784203306613    7.99644835959075
C         4.82294553910354    2.67775110751113    8.63346022779960
C         5.34730877136536    1.39920782896872    8.56051660884771
C         4.72119617299012    0.44976746132797    7.76716193228230
C         3.57047359105906    0.77891605155086    7.08359716194633
C        -1.33678062486997    4.18119440135718    6.01362382878823
C         0.33566937548339    3.02442120033369    8.22450171766845
C         0.38265500133413    4.21108767308426    3.46486611969139
C         0.33993776340662    3.77378830371997    2.12103150343741
C         0.18096325019661    2.30876565116331    1.81940787013710
C         0.40598195436754    4.70925474820120    1.10511013513167
C         0.49188256149329    6.06664861233749    1.37507370918102
C         0.49331957514988    6.50157823940764    2.68921575853375
C         0.43813679358342    5.58950315200044    3.72346516109327
H         2.77312228499576    4.35911866876333    4.48896524752557
H         4.21420271595711    3.40571508497897    4.92955200327149
H         4.38395021208906    5.06224126675697    4.30293392408776
H         4.51039971636375    5.45471641691158    1.95860776566532
H         4.75435143259085    4.56230296656154   -0.32168558355061
H         4.33335737693578    2.16422944239759   -0.75250616462011
H         3.59352199631760    0.69546367461523    1.07700183806986
H         2.88398230533190   -2.32928688461034    5.08012192709946
H         1.16749355157636   -2.42438295579584    4.66113399665475
H         2.40991708515292   -2.65915392636980    3.41830429787571
H         5.28380319139359    0.17424169356069    3.05284039523614
H         4.94895842816485   -1.01275701597577    4.31987012286554
H         4.49552447088553   -1.36142657783001    2.65247631020806
H         0.77614911933055   -0.90255979355218    1.96777155381917
H         0.19878980055071   -2.55763325814744    2.19596796782057
H        -0.73343610422429   -1.43574874867497    1.21190148192270
H        -2.68231777718575   -1.99737703467043    2.62098217915228
H        -4.07374081966762   -1.21279411471194    4.48856234498142
H        -3.07746207907363    0.22010201643432    6.24360838019452
H        -0.66044443646192    0.78301114233323    6.14485886158977
H         2.55389788485914    4.69379604715605    7.15362441488092
H         2.65676802390187    4.66501322691643    8.91808721960940
H         4.06044231282609    5.14068998763063    7.96950383803662
H         5.32643831003242    3.42556071680595    9.23080628400389
H         6.24252404511782    1.14832587869114    9.10890319519584
H         5.12736450576181   -0.54909771891579    7.69462004525041
H         3.04719268628796    0.04347377547935    6.47396145635079
H        -1.76127558232303    4.51284575829362    5.06817750098509
H        -2.03672460443993    3.48600316493665    6.48134893658996
H        -1.23344625566546    5.04269974176127    6.67432827397506
H        -0.62226976417717    2.51544269532602    8.34836272388821
H         1.07701220647667    2.52016344368408    8.84111847984073
H         0.21273853516927    4.04637223296705    8.58267461084779
H         1.13417312834616    1.77801228777498    1.93242551200976
H        -0.55476945961263    1.86101964780628    2.49941496462316
H        -0.15901177684440    2.17349044758860    0.79366306761867
H         0.38174923956449    4.37106107505242    0.07839414572606
H         0.54533446826995    6.77775691440060    0.56498907168138
H         0.54479100388321    7.55787494426433    2.91130394924810
H         0.45975352727268    5.92803794999669    4.75124732297289

