81
CSD_code = WIBBOB | q = 1 | S = 0 | Stoichiometry = C32H40CuN8(1+) | MND = 4
Cu        8.73684997358057    2.84356003424284    8.60821356781635
N        10.06679801621741    3.03545480407532   10.21979858166162
N        10.56697920381019    4.99257066771301   11.50875535456809
N         8.62960743449673    3.95166353027823   11.79732064779941
N        10.36892721482026    2.39866918220477    7.60401055227483
N         7.13492753112408    1.51990663245159    8.43900074569881
N         6.52256124535852   -0.00782164042073    6.68964721270993
N         8.29884527850412   -0.42681058000021    7.95221510528268
N         7.30937417146088    4.20566239202725    8.70751588700986
C         9.80606439367989    3.92957511595616   11.12792359812662
C        11.62209463702288    5.57532449521825   10.72024455432788
H        11.61429667869352    5.15860230334888    9.71418536499597
H        12.59983166921695    5.38255597779951   11.16893995251409
H        11.47471937149255    6.65469233092836   10.65519228130688
C         7.70713209316814    2.85442622396785   11.86429451679481
H         7.77306976630828    2.28607341224497   10.93760912148218
H         6.69528034590610    3.24587883155678   11.97306119804824
H         7.92596850720485    2.19540817983221   12.71099104784723
C         9.85512651962057    5.81993310266584   12.46613726837039
H         9.58138860420091    6.77938194760055   12.01009559420566
H        10.48417750779752    6.02132966222806   13.33730723080792
C         8.61843891910454    4.98347745573373   12.81160695459033
H         8.69283214932149    4.53929183365477   13.81214606280062
H         7.69018007911881    5.55928362458723   12.75936625023296
C        10.46634716814646    2.03029197151517    6.34651368066978
H         9.57579206981508    2.13712969647858    5.74238304434107
C        11.65113557049767    1.53514366261851    5.78919140307107
H        11.67357162292578    1.25105539817643    4.74906623620215
C        12.76553271180913    1.43023366092097    6.57924720979586
H        13.69865334761291    1.05760137200809    6.18334348529379
C        12.69688813024442    1.81535594633111    7.93535042727042
C        13.79088279158823    1.74134626448927    8.81403277173613
H        14.73745606168543    1.38369501339620    8.43807548602487
C        13.65967929277251    2.11252839354547   10.13176463442748
C        12.42338759265361    2.57342361203966   10.60344396575713
H        12.32240748808667    2.83431137474397   11.64701794853785
C        11.32164070672998    2.68957084195958    9.77503137987698
C        11.44927498680142    2.29514195131448    8.41156122102561
C        14.80939751225742    1.97732579683712   11.08648418167497
H        15.75216291532979    2.08033402339196   10.54740237734761
H        14.75954416946326    2.76255939470537   11.84308625289479
C        14.77023884775249    0.61155631886698   11.77583108934307
H        15.60001876642670    0.51680735859797   12.47109523999621
H        14.84157027181227   -0.18586069309312   11.03998180939326
H        13.83984289731920    0.48872871549246   12.32575758275437
C         7.27587806028262    0.43296594879439    7.73685345640879
C         5.71972365147290    0.82567369382323    5.83248447470541
H         6.18290606042558    0.90966014333071    4.84457112312935
H         5.62194216195716    1.82003582444831    6.25901093551669
H         4.72530777530686    0.39097109474460    5.71259618120863
C         9.11897470471350   -0.44645437748850    9.12983086347428
H         9.21034752536414    0.57046842506632    9.51129326985238
H        10.10861946617356   -0.82054123335303    8.86677584321348
H         8.69169312791467   -1.08791729597296    9.90745088643750
C         7.09878721591737   -1.21173881136913    6.11576018013168
H         7.52190558850856   -0.99454312569554    5.12705479279735
H         6.33044425619768   -1.98002359981007    5.99765432105754
C         8.18259488693600   -1.60698717849247    7.12296088677279
H         7.88203302118584   -2.47191277102087    7.72736622788533
H         9.14010646388552   -1.83595026877648    6.64727505160601
C         7.44072929891461    5.49577377048514    8.91614475242501
H         8.43684529560613    5.90318570653962    8.80829379528479
C         6.36305348406908    6.32596289652266    9.24679680125372
H         6.52936372733665    7.37996568366722    9.40408189084809
C         5.11091801472910    5.78020777707623    9.35325121507497
H         4.25428637335258    6.38953028977644    9.60093559884177
C         4.93292344707764    4.39711871862533    9.13507855731481
C         3.68521103963110    3.75661642694517    9.22362350698257
H         2.81207404751235    4.34714328826957    9.45635908587936
C         3.57734773899514    2.39991498996773    9.02598397424798
C         4.72165258680569    1.64799137813021    8.72806199998676
H         4.62915533975507    0.57922167744814    8.60053676713770
C         5.97026110665521    2.23175919134330    8.60670592814102
C         6.08796371618456    3.63668041804751    8.81750394284708
C         2.24342917782584    1.71521741224153    9.07878438329942
H         1.55157983963874    2.29735935929159    9.68862787360716
H         2.35172680521029    0.72743671936065    9.53051669920505
C         1.66673254274782    1.56451356295881    7.66925391473178
H         2.32900041213008    0.96630304988904    7.04736384366297
H         1.54643850660036    2.53954235305571    7.20295394027108
H         0.69604730000962    1.07777926790719    7.70956295603246

