65
CSD_code = WIBCEQ | q = 0 | S = 0 | Stoichiometry = C24H36O2P2Pt | MND = 4
Pt       -2.50006400673338    3.62068538415691   11.10200868781063
P        -1.62105798422238    5.76577659025263   11.15738440939774
P        -2.99029028942508    3.12332400952733   13.31325549374981
O        -1.21194977236137    6.01815420919563    9.61673178016423
O        -3.68745710262724    1.67211483640419   13.20182958412016
C        -1.69222111099382    3.66692419855452    9.22356757063087
C        -3.68288253558100    1.98145964337785   10.78965187024651
C        -1.17015180031765    4.89284623703135    8.78952730571247
C        -3.04234492903031    6.95706404788703   11.32257062973965
H        -3.32959246341006    6.98516450382151   12.37935698694902
C        -3.42930943330663    5.07447638217138   15.28389888589082
H        -2.49888138929042    4.83086488974455   15.79260542682969
H        -4.10775286532444    5.51876712265171   16.01096404107221
H        -3.21778320135263    5.81797699526973   14.51680860660800
C        -4.08636690059813    1.26678639056840   11.92557085814231
C        -4.91836319504883    0.16269143053055   11.86554551976990
H        -5.17588041155593   -0.35456062429551   12.77820289444548
C        -5.40849283813498    4.17299678975510   14.02216951847123
H        -5.83159232335928    3.29129162788130   13.54211613373298
H        -5.28848671151949    4.94834109157303   13.26596819217454
H        -6.11421138615238    4.52824209825793   14.77161936708862
C        -0.17551691962178    6.61390550105480   11.96986305969800
H        -0.00182289609766    7.54617164467255   11.42040218614895
C        -0.40777963342157    3.96590493725258    6.72347107794286
H         0.06674342392071    4.08597198177106    5.76087872844417
C        -1.39483628461970    2.66177053346192   14.15513661934658
H        -0.87830876252182    3.59130314223734   14.41827520465021
C        -5.10001718583349    0.47625777218430    9.50590843271026
H        -5.51316530343830    0.18879700178739    8.54975655677119
C        -0.55761637739537    5.05841137292779    7.55982084670054
H        -0.19320171669956    6.03566164023766    7.27877192653193
C        -0.84608116439032    2.72505812761580    7.14547393682468
H        -0.70174013558478    1.85845624392686    6.51641151776399
C        -4.18536903282729    6.34749625997953   10.50989326810721
H        -4.32662270548435    5.28761076713946   10.77404690409580
H        -3.95280962837157    6.39992569730840    9.44691611998996
H        -5.12049037229438    6.87790119009069   10.68431749680964
C        -0.44282300698309    6.90128620681898   13.43916309777288
H        -1.26337096633021    7.60464112350879   13.56498104731796
H         0.44357299303932    7.32587092920319   13.90856624561058
H        -0.69625769888237    5.97971883731130   13.96112448935735
C        -1.47448866496639    2.58297003788202    8.37398570894069
H        -1.79819618412503    1.59622634847962    8.67341201373206
C        -4.24943326001592    1.56927990623507    9.58410486281127
H        -4.02855160701103    2.11314303266119    8.67662458514866
C         1.03163914111251    5.69674908586473   11.79690009170679
H         1.18805128191764    5.46613917571209   10.74369023183142
H         0.87351815576435    4.76020213753322   12.33104221568657
H         1.93485513788781    6.16633377139803   12.18368294914409
C        -2.70753786670631    8.36257595447297   10.83952054543857
H        -2.00428866459413    8.85788460877375   11.50547316147681
H        -3.61326502982396    8.96602273303306   10.79356015362908
H        -2.27346287173170    8.32018827593917    9.84250369959611
C        -0.57531034001385    1.91559030679824   13.10150611395559
H        -0.55013953098981    2.48195989655699   12.15720336854800
H        -1.02815308632249    0.94572921806679   12.89878546298346
H         0.44769784281869    1.75415712518660   13.43856500722217
C        -1.59811693493971    1.81135891453600   15.40268995907407
H        -2.04569635856337    2.38615777616068   16.21055994819775
H        -0.64043566507434    1.42635757762123   15.75086105210626
H        -2.24484359235697    0.96603277593658   15.17586337305610
C        -5.41790225569056   -0.24517465888782   10.64097892062746
H        -6.06575173082659   -1.10727991561615   10.58401230466665
C        -4.06130174837889    3.84126953667260   14.65723654964314
H        -4.20054014264542    3.05571761368589   15.40870519572878

