85
CSD_code = WIBCES | q = 1 | S = 0 | Stoichiometry = C32H44CuN8(1+) | MND = 4
Cu        4.78207127468185    2.73672996447305    3.67279081937621
C         5.97593033749214    5.08538488811299    2.38708197307828
N         5.96301509988892    3.77679682407464    2.33231754612177
N         7.07100282750651    5.82707448807311    2.71846880212244
C         8.17395813333355    5.25674242291034    3.45264895876365
H         8.99530473041349    4.94764482912926    2.79728544382913
H         7.83588045848691    4.38959606526974    4.01678571058956
H         8.55017796027299    6.00812415215491    4.15003065888521
N         4.82036697823790    5.75749482477056    2.13501904734124
C         7.33820394952690    7.12349433531230    2.13629583604126
H         8.28850105790022    7.08609650105916    1.59532010909654
H         7.41833966509894    7.89560711557881    2.90551760904688
H         6.55229960842475    7.39115608455516    1.43638183492644
N         6.25816866726350    1.39516616358519    3.58345143997063
C         3.72602018097331    5.01976356303062    1.54659226270526
H         3.00472740585126    5.73098617031490    1.14800590587932
H         3.23451373585010    4.37097640457442    2.28117106622345
H         4.10543217093016    4.39904858038990    0.73807510465361
N         2.89252667752450    1.90185493853293    3.54621461857325
C         4.40893390782545    6.89296918574239    2.93476133437310
H         4.13739618377026    7.73403592953242    2.29364773036824
H         5.20412830636703    7.19781543416013    3.60784030052845
H         3.53675128203612    6.62135853895400    3.53637714541428
N         2.30665916640032   -0.32333826576693    4.08146760364604
C         6.34883918376840    0.22944122864841    4.18159147277486
H         5.60928130001964    0.01784412369097    4.94189911763733
N         3.22169823567346    0.22479800416460    2.01437684919114
C         7.34332396994819   -0.70703905094881    3.87460125751889
H         7.37107588179473   -1.64771806561323    4.40102011528930
N         3.94790978935161    3.84906208396239    5.10111010659123
C         8.26720282615327   -0.40484041840918    2.90854738556889
H         9.04784922122875   -1.10253604763711    2.64403129850786
C         8.20228076756384    0.84061771916187    2.24814639228063
C         9.11175958827433    1.23697139526780    1.25215187133835
H         9.90616982333440    0.56096639581667    0.97445579593665
C         8.98981871736110    2.46019123832633    0.63668371844384
C         4.48532396736875    4.81557930727671    5.80973181509868
H         5.55459579509364    4.94732545828069    5.71399707741985
C         3.98958977463821   -0.99166640914450    1.84447974909784
H         3.56737475278669   -1.60121410958005    1.04304195854145
H         4.00488828756990   -1.56882080617716    2.76368356267818
H         5.02123789496908   -0.74096737671075    1.58083361358452
C         3.49868670599593    1.24091476008888    1.02487049667701
H         3.54068192461815    0.76692611497914    0.04572189395243
H         4.44711239130940    1.75260556451206    1.22586075638306
H         2.69961001704025    1.97866289056801    1.03508977682684
C         1.55735237550659   -1.46778989119781    3.61285911472796
H         1.45402559950616   -1.43307612861293    2.53240792134482
H         0.55856308597567   -1.45087912981843    4.05908701525443
H         2.03987081337116   -2.40481756585611    3.90187579693285
C         2.27119815600439   -0.12243854693736    5.50937639865397
H         3.00598054794060    0.62682355701116    5.79767578791087
H         2.51808088376721   -1.06739689521960    5.99792622117734
H         1.28595017324664    0.20361963291481    5.85950108849283
C         2.78956172856985    0.63310865189623    3.23845340886179
C        11.03726517560161    3.81688638982926    0.22143166740653
H        11.76080182215541    4.12089783295119   -0.53002819768413
H        11.56346659171648    3.29598008333675    1.01814558320310
H        10.57907499000214    4.71126668181359    0.63884189327603
C         9.97672081764756    2.90648150649647   -0.40190527698302
H         9.45870161088223    3.44906087694014   -1.19518129925935
H        10.46614143704701    2.03807340250951   -0.84409736814847
C         7.15765328870037    1.72176985905887    2.62875381534624
C         7.04589420939556    2.99585155859131    2.00182902768686
C         7.95577674570169    3.32844328842868    1.01545442857964
H         7.85298231607107    4.27671843039736    0.50657274171579
C         3.73780643745017    5.64384063480654    6.65547892954806
H         4.23321096868374    6.42085049197929    7.21545155731962
C         2.38538357358375    5.44620807145094    6.75586944306865
H         1.77615012348663    6.06593325592175    7.39691600269942
C         1.77507337965175    4.41432960813031    6.01143472606191
C         2.05726515909110    2.57110973717969    4.40945930859798
C         0.69362467447541    2.35320263532747    4.47798935834669
H         0.25558964574905    1.57935940395050    3.86316449153084
C        -0.14078791303727    3.12508632213185    5.29921109792176
C        -1.60363887591029    2.79794410905816    5.36980781364613
H        -1.97487925979257    2.54805363526167    4.37391618305585
H        -2.15853031282298    3.66273681864368    5.73506005101684
C         2.61643029655499    3.62983667781434    5.18117148740372
C        -1.84485562771826    1.61382168899499    6.30885553040609
H        -1.33212868327898    0.72497475615227    5.94667874481412
H        -2.90718451198668    1.39474138655186    6.37280811275595
H        -1.47728278978055    1.84038291978567    7.30712958758009
C         0.39791102381035    4.13614802481746    6.05912013053206
H        -0.23174025892416    4.73497308846258    6.69952273228124

