70
CSD_code = WIBCIU | q = 0 | S = 0 | Stoichiometry = C25H38Cl2O2P2Pt | MND = 4
Pt        6.98690820627819    0.94461358470293    8.44651552670035
Cl        7.12190821842797    0.58364938531528    6.12797519949376
Cl        6.88217843316287    1.29552039192835   10.72330730157833
P         5.12830571561134    2.23018013967086    8.02392078108670
P         8.83785733438947   -0.40054645037821    8.69425294595391
O         3.87375711497454    1.35410929011910    7.48782521099784
O         8.44320416309063   -1.92911553550976    8.35523348190639
C         4.85558476589835   -1.21428006257775    8.46172422259560
C         4.35947670003413    4.35378811962297    6.27725129174607
H         3.39799136332678    3.84332045402721    6.23980135757656
H         4.53617700555472    4.81796486123489    5.30789837288912
H         4.30654601655788    5.14483162145798    7.02221252256663
C        10.30816408538256    0.64188000662982   10.81971547934437
H         9.63980536102580    1.49849478700147   10.75279203932318
H        11.18714178408121    0.82726481626638   10.20543487106363
H        10.63166311343108    0.54596164643433   11.85473272964269
C        10.28391786050746   -0.92081289407218    6.33125359276940
H        10.26464177075304   -1.98208780108956    6.56871458418963
H        11.16847463616129   -0.71534810976083    5.73027078717931
H         9.40328593947318   -0.67745895646503    5.74190082112178
C         4.01345034800379    0.28101227932764    6.62232287453033
C         9.58089231748768   -0.62375679500734   10.38299837080478
H         8.72042917717216   -0.76583237857775   11.04730191565490
C         4.14819084265576   -1.81505959484565    4.81163165970171
H         4.20280868947141   -2.63577478310423    4.11291221223332
C         5.48047979110447    3.37124260955598    6.58829845083601
H         5.57304083322688    2.67387043254363    5.74459939415575
C         3.63265541949879    0.46801678636903    5.30182730179483
H         3.28623713074551    1.44392381528169    4.99661120947626
C        10.47700565406291   -1.85407349959928   10.46325903850120
H         9.96341370938349   -2.73312175971870   10.08152233795056
H        10.75664096234655   -2.03811081440420   11.49940908759134
H        11.39068524965188   -1.71632405175424    9.88883211607326
C         4.14563573949701   -1.18435844696720   10.77889570768555
H         3.40120781349406   -0.93172283447678   11.51869681295529
C        10.31807374246036   -0.08310455913975    7.60286282572611
H        11.20642813632805   -0.36009604295223    8.18222458908252
C         6.26812032868725   -2.11299386112538   10.19706499635392
H         7.18572371462300   -2.60618592342507   10.48411420696889
C         3.53882405457364    2.35023649309237   10.31226970690916
H         2.81389174255740    1.67869517804636    9.86132381064059
H         3.02428627279418    2.96769283407399   11.04720142542524
H         4.29715039156530    1.76362794938600   10.82495451451372
C         4.52991369093287   -2.00409377141107    6.12614988906099
H         4.85929787599710   -2.97792046694114    6.45685556592235
C         5.10629671828836    4.26096852533574    9.90407669029118
H         5.48581799487524    4.97757133639438    9.18032273392134
H         5.94848708882113    3.75440214663012   10.37120974810294
H         4.56889718806254    4.81127907770557   10.67478311941320
C         4.48216104720364   -0.96602054606652    7.05351285087201
C         4.18233649395910    3.23826953589034    9.25479014851635
H         3.38989448771580    3.74494333862218    8.69107257160805
C        10.37262285504615    1.40848981528922    7.28478776617305
H        10.28703306316710    2.00503160731509    8.19243539766091
H         9.55223987414087    1.67019006037794    6.61963710910773
H        11.30918702807049    1.66100694036495    6.78982845195367
C         5.33460211411765   -1.78116884330788   11.15941890946662
H         5.53076970839300   -1.99443337617319   12.19905529801588
C         6.05767027216569   -1.83253667272603    8.84927021800632
C         3.90981116837471   -0.91778899331158    9.44487950570975
H         2.96533384832613   -0.49416484845779    9.13806722637921
C         7.13478163827524   -2.25116020748505    7.87680897668792
H         7.14160562408061   -3.34259842600467    7.77332662597807
H         6.97719254880436   -1.80434582966702    6.89205641181671
C         6.83013314851568    4.05679483930093    6.77692385289535
H         7.55461161815612    3.34735626316888    7.18752499907987
H         6.75798213105953    4.90051626610568    7.45852362332546
H         7.20900299719856    4.41943117015595    5.82331702425257
C         3.69964448557402   -0.57411932773268    4.39621518957568
H         3.40621164112778   -0.41313194050336    3.37028241085037

