85
CSD_code = WIBDER | q = 0 | S = 0 | Stoichiometry = C30H50O2P2Pt | MND = 4
Pt       -1.58199128394336    6.84792713059000    3.90214375706327
P         0.09674213638973    5.18196071536517    4.34509897716071
C        -0.48441961633874    8.37375726982036    4.78401656332543
H         0.54102894597557    8.04727711279837    5.00457652529760
H        -0.39027402106306    9.27077306051809    4.16119850288879
C        -1.13412429097996    8.78742918726036    6.10904845448733
H        -0.53103265811509    9.55250376932618    6.60545198340439
H        -1.22172428534056    7.94569617777336    6.79736816331373
H        -2.12852274987504    9.20272857389696    5.95153126447406
O        -0.37568391396102    3.65535343423798    4.63940556168411
C         0.97262537366968    5.36904675950564    6.93517697308212
H         0.23169416126346    6.15589120866998    7.05528117517285
H         1.75324096260323    5.51257479505324    7.68146499140598
H         0.48401123327404    4.41341015188650    7.12086928841438
C         0.13813717449360    2.41921929296072    4.14251833182702
H         1.23206184525170    2.41323391421017    4.14484164488975
H        -0.21054687810388    2.26500788967028    3.11679119394587
C        -0.38233300716412    1.33082562537670    5.04240312477853
C         2.70798219645605    4.42401489916967    5.38543925772887
H         3.09538170241696    4.39170606748408    4.36929443698425
H         2.40723966429305    3.42129353665635    5.68097352312122
H         3.52344764329983    4.72827312075834    6.04262222395519
C         1.55091012858021    5.40680748307991    5.52405455447531
H         1.92828161791995    6.41522809694853    5.33400504180170
C        -1.32658666608978    0.40368325038955    4.59805084570870
C         0.94038846989058    5.11268111973462    2.68226959290573
H         1.63052742065876    4.26097021144934    2.63499813354645
C         0.06425045780160    1.26445013684619    6.35676234334149
H         0.78803850610167    1.98748680559130    6.70322352128934
C        -0.40443601369107    0.29422358494618    7.22222709607158
H        -0.04711678055526    0.26070766209855    8.24056250125636
C        -1.77881206871679   -0.58186708213730    5.47016242642753
H        -2.50073439713848   -1.30262730959881    5.11349484657475
C        -0.15130794567452    4.95385097334642    1.62958902237842
H        -0.74846674240467    4.06061717227703    1.79966707084566
H         0.27607763777551    4.90410522104311    0.62818870480956
H        -0.81645433876482    5.82115088475193    1.68606551111693
C        -1.32719218463543   -0.63658516034260    6.77538095378564
H        -1.69362786351430   -1.40295535979575    7.44195875739474
C         1.68544004595517    6.41892982454745    2.43710341350872
H         2.53834171006496    6.53385423505006    3.10156503516341
H         1.00012843659980    7.25360746866402    2.59719806420405
H         2.04639848785121    6.46020208884012    1.41001245663977
P        -3.26049310888425    5.18188069620019    3.45979393468778
C        -2.67944879175872    8.37415620774245    3.02117999165098
H        -3.70486922711771    8.04743661650769    2.80083599975639
H        -2.77355571863307    9.27123334075473    3.64390794649775
C        -2.02993129777617    8.78739358111667    1.69593097432555
H        -2.63309189176542    9.55236486108783    1.19945367976912
H        -1.94239694862233    7.94547025319945    1.00783449150687
H        -1.03550421075361    9.20267563452693    1.85329863370183
O        -2.78815307853788    3.65524917665151    3.16546822340286
C        -4.13639473499307    5.36916167847584    0.86969237624877
H        -3.39550865992804    6.15604449597061    0.74956494854435
H        -4.91704561522873    5.51265518093655    0.12343347390821
H        -3.64774404535593    4.41354735062878    0.68397918486546
C        -3.30203886244566    2.41915824557084    3.66237878052278
H        -4.39596279538139    2.41321614415594    3.65998148506034
H        -2.95340488278705    2.26498868602474    4.68812868952798
C        -2.78154185217648    1.33074559872464    2.76254106903941
C        -5.87173315347256    4.42410403275859    2.41943329466586
H        -6.25910936506496    4.39172741239015    3.43558576536999
H        -5.57102525078461    3.42139835901317    2.12380792181892
H        -6.68720999832051    4.72842800671760    1.76229593395289
C        -4.71464823949640    5.40688812534287    2.28082969985993
H        -5.09200770443998    6.41530877417903    2.47091147536308
C        -1.83725671482660    0.40365733616402    3.20692793650903
C        -4.10416804609232    5.11273463998287    5.12261641512788
H        -4.79431865684254    4.26103905826953    5.16992453541184
C        -3.22810113300290    1.26432194023479    1.44817666224511
H        -3.95190927353894    1.98732544200164    1.10168682636725
C        -2.75934573614949    0.29411002059371    0.58273370778013
H        -3.11665318746323    0.26054727556622   -0.43560365689526
C        -1.38495658041637   -0.58187543252070    2.33483704023232
H        -0.66300719230903   -1.30259344147973    2.69153292008637
C        -3.01246177702736    4.95392974467217    6.17528899169622
H        -2.41528223519468    4.06071422517697    6.00518944765692
H        -3.43981242326606    4.90418842098625    7.17670457904647
H        -2.34733993033041    5.82125483764748    6.11875954421115
C        -1.83653558987116   -0.63663112842858    1.02960641161718
H        -1.47002873515210   -1.40298196215996    0.36304659691905
C        -4.84919132727236    6.41900308236554    5.36778232348325
H        -5.70216172175632    6.53388151373269    4.70339907603007
H        -4.16389526116338    7.25366614544674    5.20755606321456
H        -5.21004329711241    6.46035082233202    6.39491079354296

