37
CSD_code = WIBHEW | q = 0 | S = 0 | Stoichiometry = C13H14N4O5Zn | MND = 5
Zn        4.16645511043974    5.03189379505563    4.84488277337133
N         5.16464879555372    2.71350309610651    3.65924731104195
H         5.79374005781997    1.37063384665262    2.83851872059026
N         4.32477356564003    3.11060092433124    4.63356604915672
N         3.01391525010771    6.56994279464641    4.31456485852124
N         1.36982642478149    7.98374945786814    4.53036521513394
H         0.53149781345171    8.42111944904927    4.87891923289110
O         5.56478791294838    4.96559435858324    3.41911151771930
O         5.22808907687804    5.94000011513959    6.52668921843184
O         2.96660349767892    4.40518555668869    6.38424446044513
O         2.14137786668178    2.52245918312694    7.23815783886220
O         6.40229429210439    1.05288842223980    2.12414307944696
C         7.33426855815564    4.51162987172072    1.34685060218157
H         7.10902330276854    5.50974644790700    1.69111026197706
C         8.22190929274404    4.29731052322441    0.31632575853781
H         8.70711129522983    5.13130101026945   -0.16765550910745
C         8.48828987760741    2.99729964580465   -0.09520971751294
H         9.18297407532420    2.81785045957276   -0.90268031696814
C         7.87090635691987    1.93125926788030    0.52193612674103
H         8.06832246084883    0.91612646631642    0.21454419885095
C         6.96653103295985    2.13181897682879    1.56788345939498
C         6.69436792541614    3.44806469728902    1.98684542028501
C         5.75876148217975    3.75498692041407    3.07932247349002
C         3.65404057321151    2.35183126508037    5.41194847913637
C         2.83023417221853    3.13417508577825    6.44353912375402
C         3.15713245626807    7.53670845508813    3.36808387611668
H         3.97753086533625    7.51594160958142    2.68091910007476
C         2.13449683250417    8.42776785384762    3.48974843030674
H         1.89749179094337    9.31340770851382    2.93822866432658
C         1.93398662289938    6.86311298131851    5.00110104339090
H         1.57015042709371    6.27536407074719    5.82014254166821
C         3.64368841214126    0.86737033898169    5.40742479575692
H         3.30100677911307    0.50022025259962    4.44046799056420
H         2.98166665432548    0.51745912914462    6.19550881714184
H         4.65120682693224    0.48351786101577    5.56634324237306
H         4.56862128758520    5.64040775240964    7.16899963164360
H         6.07477097518681    5.56675034918184    6.79146123026294

