27
CSD_code = WIBHUK | q = 0 | S = 0 | Stoichiometry = C6H14Cl4N2Pt | MND = 6
Pt       25.46421526231202   20.24738331160576   20.25892556374587
Cl       23.65245984202858   21.50923231881158   19.66419262770317
Cl       26.82665998555807   21.38325727421829   18.81618254468813
Cl       25.97945329513090   21.69278347852711   22.05575555068469
Cl       24.98704019715717   18.59961407640431   18.63405980700247
N        27.05037980960297   18.94113737364045   20.90933711151400
N        24.33788053738096   19.09989170581551   21.69402234470668
C        26.60572296846301   18.30245873269324   22.15440151336203
C        27.45669163606714   17.07631199619083   22.49403581524563
C        26.95069418416272   16.40879123523435   23.76994302128230
C        25.49003500735040   16.00162417116777   23.61184063608216
C        24.63159598427531   17.22096947690625   23.28694753942009
C        25.12605633170336   17.90164820859611   22.00820127733860
H        27.93160741625556   19.43882310639677   21.03151703752993
H        27.15723005597861   18.25298700787166   20.15968083258061
H        23.40733744595348   18.86322228108279   21.35165500941369
H        24.24776000569508   19.70721169610016   22.51254113662277
H        26.68750307278265   19.05194073060773   22.95093458163663
H        28.49873815920175   17.37568892776293   22.61877648558650
H        27.40364740062873   16.36388763431972   21.66713238212139
H        27.04880684528796   17.10217560592806   24.60712293804020
H        27.55974366097047   15.53160510859913   23.98874741468949
H        25.39915446430849   15.26803292354918   22.80880426756590
H        25.13185022624414   15.53773075873278   24.53097168543299
H        23.58964368614043   16.92067653170114   23.16355239913549
H        24.68504067673379   17.93257245238227   24.11452958450434
H        25.03195184262648   17.21844187515437   21.15538889236414

