51
CSD_code = WIBLAU | q = 1 | S = 0 | Stoichiometry = C20H24AgN4S2(1+) | MND = 4
Ag       -1.50659890025709    4.88929755977429    3.92723962633076
N         0.65435916891997    5.58810716057990    3.68743279268613
C         1.66050693362837    4.93786870487918    4.22985812997484
N         2.86483264039756    5.41767571142998    3.83419718151955
C         2.61391781247301    6.46151894820593    2.96883635644181
C         1.21125043542553    6.55539472393078    2.88556892668929
C         0.59997029903379    7.51754896849991    2.09144877786555
H        -0.47860081631341    7.57934165537487    2.04616398566761
C         1.42330525450319    8.36879359301459    1.38746113147039
H         0.99121350230221    9.13066341042277    0.75774505252929
C         2.81567933714605    8.27150194965180    1.46982105294129
H         3.42100619009177    8.95997895583742    0.90142756752128
C         3.43650534950128    7.32402178785807    2.25758054702672
H         4.51192970784460    7.26600876553695    2.31333318814933
S        -0.10302139252610    3.66575556796660    5.96716875753049
C         4.15687302207429    4.92633137753841    4.22951653725755
H         4.91210728220025    5.35434830019305    3.57464330488498
H         4.19411756291627    3.83984586251145    4.14515459790237
H         4.38472920460931    5.21245940095902    5.25915101126326
C         1.53214188358026    3.79089503917561    5.16742658043632
H         2.28051170789203    3.84744672699708    5.96021171356615
H         1.65972267210145    2.84623148889561    4.63278468425361
C         0.00988290514863    5.08518511295709    7.09590986712895
H        -0.93972645564502    5.14717610461617    7.61738875200625
H         0.18941942962600    5.99730775137824    6.53411056497922
H         0.80842945708689    4.90293388718968    7.81002443606032
N        -3.66754570236989    5.58816125827768    4.16704362073227
C        -4.67367737447209    4.93796589278087    3.62453421547370
N        -5.87801934385761    5.41777968399767    4.02014829604703
C        -5.62713838592750    6.46152959928297    4.88563137968695
C        -4.22446718168196    6.55539793338376    4.96894739704313
C        -3.61319438346963    7.51750716338777    5.76313401226988
H        -2.53462321226057    7.57929024466360    5.80843528166825
C        -4.43653275568989    8.36869932665983    6.46717660549957
H        -4.00444838227395    9.13051809485615    7.09696291940493
C        -5.82890576479984    8.27141035413266    6.38478448586505
H        -6.43424191259798    8.95982756865256    6.95324034323350
C        -6.44972288091718    7.32400535900625    5.59692460344917
H        -7.52514707537910    7.26596314851068    5.54122678305613
C        -7.16998591311979    4.92633518794428    3.62474791468195
H        -7.92546310711904    5.35607267407665    4.27818256642359
H        -7.20779865726517    3.84003829836750    3.71122397492332
H        -7.39672419446901    5.21060320952269    2.59437970441437
C        -4.54528681664120    3.79095004626673    2.68703363323299
S        -2.91014472172668    3.66577386349553    1.88725772833592
C        -3.02307340290921    5.08523194950889    0.75855266520888
H        -2.07348112517543    5.14722858923861    0.23704807707904
H        -3.20258780182436    5.99735258302731    1.32036196461339
H        -3.82163526475381    4.90300282821033    0.04445222217019
H        -5.29370271175401    3.84737494431527    1.89428480867398
H        -4.67281612130737    2.84634168305760    3.22177967272850

