98
CSD_code = WIBNED | q = 0 | S = 0 | Stoichiometry = C36H56N2OPdSi2 | MND = 5
N        -4.97260193220215    3.80231583866086    3.19494550517225
N        -4.17888304665115    1.82496061687552    3.51203113035950
O         2.24698831702487    2.71653186772202    3.87418667587684
Pd       -1.02067029723734    1.96102324087809    3.23171831925524
Si        1.69605791239227    3.61575654982752    2.61550609471500
Si        1.41640238815528    1.84009909261375    4.98928108310700
C        -3.09984283458310    2.67037916091290    3.73904612347793
C        -3.63737949938003    3.91464450224507    3.53022093693696
H        -3.18839449233263    4.88500004274668    3.61335460520263
C        -5.28566399758304    2.50500634223489    3.18702911248528
C        -6.60091572311697    1.93842073749394    2.80548447739649
H        -6.69187385998864    0.92151598674212    3.18150183326378
H        -6.70227187487233    1.91202953183914    1.71868536834494
H        -7.40966134678487    2.55128098385200    3.20136117020271
C        -5.83313106441592    4.87382969919726    2.85095469320146
C        -6.60100758960634    5.47973543560614    3.84807734837533
C        -7.41683865731895    6.54319683009944    3.48688473194201
H        -8.01794044703910    7.03361341337656    4.23662721762228
C        -7.46452525621385    6.98629409433357    2.17872997074313
H        -8.10375172090330    7.81572811059982    1.91546260579214
C        -6.69220476200287    6.37748203094964    1.20763053105337
H        -6.73258220255837    6.73967450847175    0.19220607528052
C        -5.86271147077529    5.31051102511759    1.52382806529746
C        -6.52863509986115    5.01548143164752    5.28417225031738
H        -5.89779321929052    4.12327413756203    5.34153300686763
C        -7.91251128592418    4.64644144217898    5.82188480461589
H        -7.82188936663730    4.22590215934370    6.82061770642309
H        -8.39228392214502    3.90825444751744    5.18176978941368
H        -8.55735497950974    5.51928377027626    5.87799098708206
C        -5.87967325472277    6.09806810088224    6.15012871301153
H        -5.79797656340466    5.75438385732365    7.17855371463166
H        -6.46979560268193    7.01108505389971    6.13650884127471
H        -4.88166754272279    6.32790823192098    5.78407992007230
C        -5.00211548542611    4.66316133644360    0.46387445301214
H        -4.48131609065498    3.80374066535828    0.89639938865576
C        -5.85001797568776    4.15852805269431   -0.70546207382988
H        -5.22635604373749    3.60413645355315   -1.40301215968691
H        -6.30828689179585    4.98461607257767   -1.24276753831620
H        -6.64181062171847    3.50050703240617   -0.35179614695809
C        -3.93514378280531    5.64813934643506   -0.01982688100971
H        -3.29555466932054    5.17182560859474   -0.75901102814396
H        -3.31306175940488    5.96982760670328    0.81210768658326
H        -4.39129464232709    6.52636826479841   -0.47014577145579
C        -4.14482690423633    0.41535657034770    3.69281287102015
C        -3.96517008222338   -0.41623593646131    2.58676164975388
C        -3.98700856226765   -1.79029297065257    2.79101327883121
H        -3.83794126874560   -2.45766815711569    1.95648883085136
C        -4.19326001827731   -2.31377222880057    4.05198977015432
H        -4.21910073726272   -3.38442118190661    4.19282200475590
C        -4.34613150684092   -1.47390173712380    5.13995349633803
H        -4.48663260315566   -1.90043516648487    6.12012632508709
C        -4.31071291045875   -0.09582400832432    4.98492272935550
C        -3.67585140949406    0.15151391775629    1.21786016585715
H        -3.84971534744179    1.23294679593509    1.23475558911590
C        -4.57220338466207   -0.45466817925787    0.13721984259245
H        -4.41927157910895    0.06611668158009   -0.80580345981246
H        -5.62210952763255   -0.36918364286100    0.41250930678702
H        -4.34408715461664   -1.50546897342466   -0.01960679798298
C        -2.19213163712025   -0.07181266468924    0.90776290609098
H        -1.94497609330734    0.33552445409844   -0.07133766219168
H        -1.95142216912031   -1.13307464692484    0.91498963927536
H        -1.58163875442053    0.43967058948087    1.67801064009901
C        -4.45020653381669    0.83454349535506    6.16885601567762
H        -3.96131127860206    1.78100940634494    5.91254416569518
C        -3.76239081481942    0.29327041484297    7.42256214862634
H        -3.70385249651020    1.07737133816196    8.17423137024706
H        -2.75308645167679   -0.03673688025842    7.19091234454494
H        -4.31334063039346   -0.54043957139583    7.85113617821975
C        -5.93046924859413    1.10239570813830    6.46104354720697
H        -6.02774808997623    1.76041910783103    7.32183831879139
H        -6.44568023075925    0.16926571566437    6.68101783065349
H        -6.42213668126803    1.57207419875406    5.61278509036340
C        -0.94705492137930    3.30603201966030    1.56218842214268
H        -1.63025233507989    2.97595819690008    0.77742605967996
H        -1.12650608159129    4.31579107662048    1.91836661488678
C         0.31470767902192    2.75263430951006    1.66809598040348
H         0.56484274957119    1.92219106507190    1.00340222348073
C        -0.88996446078566    0.24357392024321    4.55516014948294
H        -1.21875979501919    0.59785462817406    5.52712426996231
H        -1.42291901806214   -0.63087588237257    4.18204949283896
C         0.38260600605999    0.52652523801089    4.11615486934287
H         0.81666493982005   -0.09189920579758    3.33028461432191
C         1.06671350918215    5.28438143011611    3.30152807437003
H         1.79294436869476    5.71559703757937    3.98407015410754
H         0.13450680373982    5.15445971993918    3.84602876655830
H         0.89455686440441    6.00072646846946    2.50417400686120
C         3.22724866615544    3.87279401799856    1.51953335948979
H         4.02529215250259    4.33311020635094    2.08953650615998
H         2.99639848843053    4.52129062315355    0.68238885982529
H         3.60262993863069    2.93584612364761    1.12435913558105
C         0.24304474463612    3.00142381752210    5.96086508264462
H         0.73950833296264    3.92772912121579    6.23560770121271
H        -0.12063716205969    2.53712447377292    6.87284561439368
H        -0.62948170174230    3.24747687237015    5.33685329939520
C         2.76345817377170    1.11001727201780    6.11210554482597
H         3.32487428299623    1.90122097786659    6.59411289851551
H         3.46210962659516    0.50568603371487    5.54613535976382
H         2.32792451287154    0.48702527489474    6.88407146593179

