80
CSD_code = WIBNON | q = 0 | S = 0 | Stoichiometry = C30H44N2OPdSi2 | MND = 5
C         6.82378086544550    4.03259211796627   11.07145779918599
C         5.99687882314582    3.05532234710422   10.58583376611684
H         5.16567560334681    3.12793330134232    9.91091432035945
C         7.41233288449949    2.02424281099595   11.91001603313813
C         8.14915906262409    0.96841531036427   12.64449987790586
H         8.17690361453267    0.05150028991844   12.05805200267893
H         7.66853296424665    0.73904200173938   13.59691605329341
H         9.16452784329009    1.30183944159296   12.84918758845996
C         5.76739251354317    0.58602022906901   10.79177339129733
C         6.18435697164119   -0.09668447493358    9.64770944715466
C         5.57353728180818   -1.30201857603850    9.34383986099272
H         5.88456428988614   -1.84274182144697    8.46163137923072
C         4.56699492272766   -1.82750448947630   10.14469368513864
C         4.16727673211191   -1.12002816911984   11.26918557303628
H         3.37932306235015   -1.51497522570708   11.89401813737007
C         4.75217658182689    0.09088733796289   11.60830171333495
C         7.26829123268907    0.47358646269067    8.78423242093868
H         7.04149643730701    1.50331961470529    8.51059159866933
H         7.38353246931060   -0.11257158845317    7.87680682223000
H         8.22081801946962    0.47639710773077    9.31544823352056
C         3.93817350623999   -3.14161274173427    9.79735367276531
H         4.61135570081015   -3.95811450422814   10.05971566948628
H         3.74146814219417   -3.20296513203834    8.72908076243746
H         3.00505542525534   -3.28234707085550   10.33644962942288
C         4.31193173013016    0.86023941153742   12.81637973084289
H         5.06605298254808    0.80493586513398   13.60205051468586
H         3.38203242111038    0.45760173174634   13.20854458266685
H         4.16368461248879    1.91103342563414   12.57133505731247
C         8.73623050300236    3.94470574636929   12.63791324941922
C         9.89489837836442    4.32795914469093   11.95900024785580
C        10.92328956035343    4.90764966816303   12.68246218774667
H        11.82361943135862    5.21148110407470   12.16858428843161
C        10.81268223816850    5.12540292204410   14.04968286252432
C         9.64102775789000    4.75666775089290   14.69289938656574
H         9.53562776295754    4.93976344071863   15.75288624082639
C         8.59000904078592    4.16614769455018   14.00515563906491
C         9.97978565946318    4.14371923569065   10.47608278737638
H         9.88085824033666    3.09267968935197   10.20323231328756
H        10.92334441500792    4.51968913824267   10.09074946975975
H         9.15397503096796    4.69024575624616   10.00509281478282
C        11.92619806142982    5.78898489054336   14.80017710876403
H        11.88400961336579    6.86681878379687   14.64224974481779
H        12.89366991467892    5.43777390333937   14.44772043129056
H        11.84737094538142    5.59845112525532   15.86762918664529
C         7.32331051830009    3.79126847242618   14.71440048122663
H         6.46204679210529    3.94992228086715   14.06836775020987
H         7.20114189120514    4.39202669729767   15.61211196056999
H         7.34361237524242    2.74207234879122   15.01266120017046
C         6.91836131237974    5.99738997505825    8.48523093710836
C         6.58419607317041    7.32270718531320    8.72028845439859
C         7.51138550265320   10.06836351899266    7.52627426073257
H         6.51051335865022   10.47352692623093    7.62309083978773
H         7.61999943829180    9.68193941668697    6.51943269128048
H         8.21078857439682   10.88735683494232    7.64772783766760
C         9.62247419873637    8.02373714236916    8.59967518230268
H        10.35753416959248    8.80012922677146    8.78828067136019
H         9.78188440954882    7.65491473333371    7.59147937361903
H         9.81556238526349    7.20837746017984    9.29125831408076
C         5.89221658870452    6.71046324958381   12.54615055329067
C         5.95522897848692    7.88703382804537   11.82847723428119
C         8.98890702214168    7.72722015866108   12.17471532229712
H         8.82252449908439    6.78491199272376   11.63325067129425
H         9.05328854106474    7.49235742524132   13.23255744248477
H         9.94580124578120    8.13482244079288   11.86349199304409
C         7.51543373983518   10.44412108280562   12.88269002290137
H         8.45791509275765   10.97400171850845   12.81707356670108
H         7.35185017071711   10.17262851600960   13.91871215148967
H         6.72991465027789   11.12872630355536   12.58609219871926
N         6.36861432646662    1.82954307185366   11.10325506901145
N         7.68656699672371    3.33536988205092   11.90233004020893
Si        7.85166865160093    8.71045450835740    8.81360592234296
Si        7.53771032922150    8.90550458527906   11.76820389959288
Pd        6.66731213208453    6.21228808350296   10.59297947024753
O         7.76984191696014    9.50012031618654   10.25434365516538
H         7.94180568058860    5.73814417121388    8.22012066964008
H         6.16395096149835    5.30541947302785    8.10530157652561
H         5.53001614294648    7.59496146111671    8.60541507329048
H         6.66676988794705    6.47554250667788   13.27261650890985
H         4.92959061381490    6.22738332219505   12.72315554338567
H         5.03725758166178    8.26796467617454   11.37744417783937

