93
CSD_code = WIBPIG | q = 0 | S = 0 | Stoichiometry = C46H35Cl5IrNO3P2 | MND = 6
Ir       12.46880847880461   18.45703384523234   10.52764282685494
P        12.13818601838702   17.93121190316468   12.80201776103069
P        11.98204178965980   16.40988227474296    9.58140656628824
N        12.90438771229468   19.03847180884264    8.52246186322601
O        14.47955593208344   18.15534743975914   10.93485512120058
O        12.97026903792404   20.34829301306588   11.23901656041176
O        10.96729401775410   21.56967456079822   14.52797047430268
Cl       10.24446155939953   18.99895332252480   10.06347145709777
Cl       13.79110416905982   22.90378812918625   12.46465830076309
Cl       16.77845018330955   22.92018588287419   13.37575751156810
Cl       18.55725989359175   20.39674596481624   12.93727654798324
Cl       17.31303514082814   17.84194544975109   11.62093189615173
C        12.22116712716313   18.74666113262656    7.48389315597986
C        13.96300233549489   20.00921327341974    8.32949299769489
C        15.28179937919224   19.30076095099445    8.02305914811717
C        11.59758767387868   20.76610499428720   13.89327161908600
C        15.03346066595649   19.24071927029700   11.43972856713822
C        14.22618108338447   20.39570505982299   11.61359953872124
C        14.79265839865441   21.52327203454687   12.20214111723664
C        16.12577140050219   21.52680258089959   12.60818160733784
C        16.91500088863101   20.40416320809824   12.41935795714555
C        16.36356511019227   19.26762122083077   11.83260957745113
C        10.60033357161696   18.10887737337248   13.77816422259193
C        10.71288391257023   18.00201664329652   15.16588948900100
C         9.59707047091776   18.13620939543103   15.96844754473664
C         8.35680700979802   18.38001637354446   15.40007037617823
C         8.24133321020827   18.48931610772786   14.02590117502924
C         9.35571537792605   18.35469757734104   13.21472842485195
C        13.26067250758194   18.87821150323538   13.89048555144652
C        14.48605173798975   18.37204520874563   14.30305009799266
C        15.31185322962075   19.11531078382883   15.13168623953719
C        14.90963533865378   20.35882354032781   15.58865134657688
C        13.67869287226269   20.86063124508056   15.20820818593774
C        12.85735838485959   20.14342265654190   14.34408955080843
C        12.60226622421824   16.19035698800523   13.13560536386155
C        11.83008172970896   15.34806622677807   13.92816533026127
C        12.24000529990107   14.04829759870866   14.16848199604629
C        13.41529185975242   13.56823632562399   13.61719241534140
C        14.17412878828889   14.39092963074773   12.80187672104064
C        13.76775245755337   15.68951323613736   12.55760773967741
C        11.07689499561682   15.16347125454695   10.54447304540057
C         9.87839885464882   15.57209859399973   11.12783379028275
C         9.14296348564375   14.68670162920117   11.89109873850030
C         9.59878016154155   13.39043755133298   12.07795193688384
C        10.79339258959241   12.98607553215321   11.50663529570871
C        11.53933746893241   13.86900306497850   10.74454877464959
C        13.29849707433141   15.46889998049227    8.74200876311684
C        12.95948701723113   14.47976917814531    7.81966579605256
C        13.95232571699127   13.76581374882558    7.17570790900597
C        15.28719924285125   14.03243315849907    7.44111933031970
C        15.62689108401007   15.01641479805217    8.35357680960691
C        14.63694518243189   15.73425475637308    9.00330841335264
C        10.87556936190305   16.71096760349552    8.16413546504794
C        11.14567084668965   17.79106302324502    7.30683470912545
C        10.33061865543004   17.97819785326497    6.18630275972473
C         9.25892636113117   17.14560730041247    5.93155963557957
C         8.99345084401070   16.08995617647949    6.78669234574082
C         9.80428415621561   15.87284355333697    7.88846479650369
H        12.43325146398934   19.31062434038375    6.56941387227526
H        13.70949228990080   20.67986003995876    7.49820822688510
H        14.06789354179467   20.61019955061108    9.23132307466192
H        16.06394936301137   20.04195263328523    7.88414032236429
H        15.19068976998449   18.70284274177634    7.11729659714317
H        15.56463275705785   18.64767962548309    8.84182654824041
H        11.28611607836494   20.45585644062402   12.87596215671532
H        11.67863259845686   17.81631446732420   15.61755209097603
H         9.69794134607756   18.05823399322456   17.04086739189613
H         7.48782480268375   18.49468138665498   16.03054943145766
H         7.28071571882897   18.69287974695816   13.57720460988222
H         9.26194774212340   18.48250223190329   12.14801962255591
H        14.80494081503027   17.39410436526781   13.97417328371338
H        16.27199243684507   18.71506693097388   15.42064868027060
H        15.55364530164185   20.93510013763064   16.23485983306546
H        13.33995061275740   21.82800016396490   15.54827871514429
H        10.90422477867141   15.69722647484660   14.35858466253716
H        11.63382769346507   13.40823642427779   14.79246816403234
H        13.73315219065315   12.55543381723412   13.81548600376500
H        15.08659177420220   14.02435030237711   12.35513630704939
H        14.36008715236102   16.32658770769068   11.91915932219822
H         9.53236284261695   16.58166863522051   10.95664883186806
H         8.21457583928112   15.00665169361986   12.33997090832884
H         9.02357844991899   12.69572268586018   12.67160949143373
H        11.14974391922186   11.97763976427015   11.65538619480770
H        12.47530934635043   13.55197734350380   10.30846638840182
H        11.91950302912569   14.27088886815061    7.60928772167956
H        13.68503002458211   12.99952971866615    6.46283320765324
H        16.05892848607044   13.47318246259421    6.93341349337188
H        16.66460613551352   15.22922452940888    8.56249359363276
H        14.89903180557806   16.50468360627888    9.70979492706703
H        10.53141796358198   18.80568271775613    5.52101531728516
H         8.63263768900702   17.32056815426327    5.07032606772005
H         8.15729261765454   15.43352519625820    6.59875320532209
H         9.59026654483268   15.04677660981366    8.55101947631144

