25
CSD_code = WIBQII | q = 0 | S = 0 | Stoichiometry = C10H8N2NiS4 | MND = 4
Ni        2.04348662579116   -0.00019313700478    9.55107464039876
S         2.80897825694471   -0.97456037038615   11.36503130860381
S         1.52061337449713    1.80608013890192   10.71068264761330
N         2.93893512238653   -0.11697092830325   13.84805670005354
C         2.56805691792442    0.17720301014738   12.58400311176399
C         1.98654150507884    1.44847797997334   12.32080216319495
C         1.82483162880133    2.33514965035985   13.37692680696139
C         2.22773722015287    1.97368027537909   14.66415381925677
C         2.78432710127257    0.74143870357943   14.88471162681222
H         3.34994082300602   -1.03125514000698   13.99814543930012
H         1.38585340549853    3.30091535649537   13.18618123892655
H         2.10218705152351    2.66021675574961   15.48464155150841
H         3.11478498476526    0.40300050020740   15.85215650433341
S         1.27889599639416    0.97450170309996    7.73692861864699
S         2.56730221765952   -1.80613677339613    8.39127621418233
N         1.14909252142408    0.11698308721152    5.25387930799381
C         1.51990306064907   -0.17722573503960    6.51794543363071
C         2.10143009235149   -1.44849732010440    6.78114208396921
C         2.26320849275852   -2.33513698820357    5.72499461471645
C         1.86040153163195   -1.97361945712928    4.43774995293532
C         1.30379734451536   -0.74138080318707    4.21720037632588
H         0.73808315648233    1.03126692966393    5.10379684638984
H         2.70218302009286   -3.30090507914606    5.91573522291584
H         1.98603039386871   -2.66011410609694    3.61723901513042
H         0.97339815452910   -0.40291825276453    3.24974475443602

