25
CSD_code = WIBQUU | q = 0 | S = 0 | Stoichiometry = C10H8N2PtS4 | MND = 4
Pt        6.29340335595304    0.00011992879801    9.60120406687743
S         6.73202848604685    1.89723736992771    8.30601567354071
S         5.43041294220385   -1.03342525056862    7.71974037162354
N         5.19331313063280   -0.15000296591550    5.27604586432022
C         5.61416683156332    0.15635999153755    6.52332632104750
C         6.17862262570033    1.44570308524249    6.74899965845241
C         6.26514963550314    2.32035964462204    5.67043600160243
C         5.81280362919882    1.94397680412901    4.40623829783016
C         5.27566924853916    0.69682980240607    4.22320248692068
H         4.79761421072936   -1.07536621797915    5.15450145001080
H         6.69012944857436    3.29764704023100    5.83349099693315
H         5.88430150350668    2.62744901795525    3.57698742872950
H         4.90693011169901    0.33794427623034    3.27738033551960
S         5.85493467157405   -1.89690566649361   10.89713803894601
S         7.15630609385008    1.03316393967482   11.48330065950295
N         7.39354040696841    0.14999847962564   13.92720515087726
C         6.97269093822817   -0.15639497626855   12.67993409598170
C         6.40825472964906   -1.44570513258323   12.45426376813595
C         6.32170711925184   -2.32037553292651   13.53280900509758
C         6.77404062072105   -1.94398693090538   14.79700974004569
C         7.31118041494320   -0.69683262203290   14.98004954404420
H         7.78923437716667    1.07536688317740   14.04873635413998
H         5.89671493867674   -3.29765590949798   13.36974890844384
H         6.70253736233162   -2.62745869838527   15.62626117946691
H         7.67991316678860   -0.33794636000062   15.92587460190982

