25
CSD_code = WIBQOO | q = 0 | S = 0 | Stoichiometry = C10H8N2PdS4 | MND = 4
Pd        6.10977496672170   -0.00037301810294    9.65125143894147
S         6.95427653732253    1.01560772673049   11.53832304957294
S         5.61118207596320   -1.88423598679307   10.92807943121389
N         7.12888338440483    0.13238386451887   13.98951512849247
C         6.14123926654266   -1.44680819355763   12.49936915154439
C         6.01657757353650   -2.31827766331516   13.57635867189587
C         6.72626450448276   -0.16713992906881   12.73410183082701
C         7.00938641273778   -0.71165492444112   15.04085477149218
C         6.45170726747390   -1.94835916269201   14.84884940389792
H         5.57537127244994   -3.28714080942040   13.40595926525948
H         6.35128266780095   -2.62874588215303   15.67764410937104
H         7.36625899784428   -0.35960679321795   15.99384309340564
H         7.54009103604170    1.05024693464288   14.11774644048679
S         5.26541049176492   -1.01541609186758    7.76303809214062
S         6.60802362175925    1.88332269793173    8.37306493684878
N         5.08976885086125   -0.13233814522664    5.31161690161973
C         6.07768206490894    1.44671393837449    6.80167078241022
C         6.20203237634488    2.31835519242173    5.72479481235922
C         5.49273101948317    0.16709440283019    6.56694005886423
C         5.20891687913171    0.71184125451748    4.26035507994078
C         5.76657354228354    1.94857105403665    4.45237050819084
H         6.64321520321291    3.28722065174712    5.89521179572211
H         5.86676187169944    2.62906116483347    3.62362499641524
H         4.85182418892433    0.35988430676174    3.30741679176197
H         4.67856392630286   -1.05020658949033    5.18339945732516

