68
CSD_code = WIBRUU | q = 0 | S = 0 | Stoichiometry = C25H32O9SiW | MND = 6
W        -1.53379739860212   -1.87543813536790   -1.40851077890211
Si       -5.01734386927519    2.32531627255778   -4.40501853966751
C        -0.88288420748208    0.14875831031876   -1.26793059842446
O         0.26139473700855    0.66823128151804   -0.89431204823239
O        -3.64735768033313    2.08719676531880   -3.53549343218149
O        -3.21770146965251    0.41710531102397    0.78424173489936
C        -1.82010234803219    1.30931846265846   -1.54747768998006
H        -2.82400342064356    0.92619592783529   -1.74299577124208
C        -1.70675600929723   -1.77066015859591   -3.39963427532029
C        -2.30269922329821    1.40442900322408    0.90333483288898
C         0.27532307300244   -2.66508021170086   -1.70033192084482
O        -3.37419038455839    4.94448406502090   -2.26631617169205
C        -2.35199554491768    1.76236737632148   -3.93555062603716
H        -2.08378163769186    2.29053220297171   -4.85424630341104
H        -2.28645436462594    0.68557636325024   -4.13351877095453
C        -1.38572709695018    2.11762496861205   -2.79976789716362
H        -0.37672865106713    1.82052800715497   -3.10621942355683
C        -2.67226994579296    4.05179403824723   -1.86730659822968
C        -2.19928783052173   -3.76220005953676   -1.49865951524602
O        -2.55971529320005   -4.84557635735107   -1.53984705739772
O         1.20800850244506   -3.29926823646234   -1.89879189976913
C        -1.37636405374826    3.63760465643318   -2.53731413004008
H        -0.57487062990201    3.83920934266649   -1.81700320910142
O        -4.60175276178936   -1.30414233879279   -1.09978628747594
C        -1.88745250317242    1.49541377743466    2.19926838383886
H        -1.16722749654659    2.18195830866343    2.59545818190136
C        -1.29411734087191   -2.09345337020771    0.56467304924866
C        -2.98062371480005    3.28050114627508   -0.60190039050763
H        -3.96052842200993    2.81542401791718   -0.73194024781045
H        -3.06623598879746    3.99031813828615    0.22478808031892
C        -1.93108351769621    2.21009840577408   -0.30075058560230
H        -0.96673112417299    2.67828539910859   -0.08316930023074
O        -1.12358756852359   -2.27404325559717    1.68030680449366
C        -4.74887447724125    0.34085998627647   -6.45763627937047
H        -4.84148214319726    1.11289346280439   -7.21786568346335
H        -5.07152313891064   -0.60444009262594   -6.89390550833080
H        -3.69816614805949    0.24562698611223   -6.19070851824100
C        -2.59834262559243    0.50211899295515    2.91808196722338
H        -2.52284159801178    0.28551006468371    3.96340573486925
C        -5.60004635101106    0.67712535919214   -5.22911914985066
C        -3.46792187050978   -1.36975516064502   -1.18340481294735
C        -4.75802208095512    3.68020274694678   -5.72215229058023
H        -5.65051157831858    3.85325308691866   -6.31379256839512
H        -3.95316668000341    3.43425179712163   -6.40999770975140
H        -4.50346539463551    4.61743775583540   -5.23563988925750
O        -1.75250840016684   -1.82606898770069   -4.54002641453712
C        -1.10951253569964    4.46993541807213   -3.78823041441025
H        -0.26335066712610    4.07312811328367   -4.34441714576086
H        -0.88986756546573    5.49533562724130   -3.50086809434479
H        -1.98825109435401    4.48909148145393   -4.42570276854247
C        -3.39033988994467   -0.11904494975777    2.00685257466273
H        -4.09107441638024   -0.92567535481389    2.09328533178961
C        -6.19108155342451    2.91476939276448   -3.03762047883394
H        -7.15888433334089    3.18047149656290   -3.44680426021504
H        -5.78370696308830    3.79594443205012   -2.55318231487289
H        -6.34866891454508    2.15593459934388   -2.27814266273046
C         1.35223570864538   -0.14364453117865   -0.51025995340654
H         2.09926073752942    0.52860081314020   -0.08839908526452
H         1.77402315799289   -0.65599320645595   -1.37847559530727
H         1.04982038044575   -0.87945484850064    0.23962916034340
C        -5.47716033172855   -0.47563556033319   -4.22867416713913
H        -4.44283861121524   -0.60961374372964   -3.91510893899018
H        -5.81684733022776   -1.40932153849571   -4.67692660603066
H        -6.07730630744153   -0.28664475464012   -3.34203411054992
C        -7.06168557341381    0.78428259897852   -5.66936485476691
H        -7.19108550977984    1.59047373542429   -6.38744470413742
H        -7.70605999413009    0.98089032587488   -4.81651878520158
H        -7.38820072111420   -0.14415496901911   -6.13690860225680

