80
CSD_code = WIBTIL | q = 0 | S = 0 | Stoichiometry = C34H39N3O3Ti | MND = 10
Ti        4.29161547690428    4.02536140115559    1.05162829426469
O         2.40975441004228    3.55052952938377    0.74893364298117
O         5.70488478842662    4.96755221410488    0.17237726911170
O         3.88204356251420    5.29710403444105    2.17922674611885
N         3.80577002491782    3.09311202073839   -0.85257481688896
N         3.76998226423758    5.78384555916044   -0.43261398837631
N         3.49872348206276    7.45558339187986    2.91175435043699
C         4.13439101675132    2.40601463644658    2.76205393732873
C         5.19403754971937    3.26077206513985    3.15457739226922
C         6.21025122842599    3.17060055944603    2.16864502940892
C         5.80242847675853    2.21921223620479    1.19083087180424
C         4.52490472232932    1.73745268482369    1.56267715577370
C         2.88373348162880    2.09552436799684    3.53104694698866
H         2.93547385761224    1.08624897101139    3.94705188223043
H         2.00993046869546    2.15119854683805    2.87937229607470
H         2.74538808464106    2.79605717031416    4.35206164807199
C         5.28863190166467    4.05381559839498    4.42446900905798
H         4.30910290503460    4.18423317231042    4.88023029714980
H         5.70740809949194    5.04372112157495    4.24039688258021
H         5.93368688218529    3.53744377092600    5.13945208092014
C         7.57320024228442    3.79190478647158    2.23726000958333
H         8.31937336737423    3.02727548499653    2.46683328281744
H         7.61375549997333    4.55464630876588    3.01154479966738
H         7.83787202119193    4.24594206086381    1.28221433296228
C         6.68510427295754    1.72732629876498    0.08204477667481
H         7.12565688480466    2.56662186705223   -0.45697043010687
H         6.13376246595392    1.11525953810643   -0.62872592444998
H         7.49933256785580    1.12518456162976    0.49311938167899
C         3.78764869685068    0.56737385196375    0.98055303111651
H         3.91087939045229   -0.30271261722721    1.63123331732030
H         4.16995085522010    0.30824995481988   -0.00469259219735
H         2.71859207945445    0.77191856227125    0.90310653949781
C         2.56722817062897    3.17123091413485   -0.45840683312066
C         1.33985778016311    2.92349548280183   -1.30489698695399
H         1.58155666373166    2.92194013953544   -2.36426882341372
H         0.61295734658126    3.70497618671541   -1.09055184049257
H         0.89427395993711    1.96633217517511   -1.03663077370803
C         4.22867495251562    2.63209226298763   -2.09411050043596
C         5.23552734601321    3.32511994680334   -2.77122431332001
H         5.63778228489448    4.22336619636452   -2.32597020406968
C         5.71023618022976    2.86746651920276   -3.98425089986573
H         6.48364775857544    3.41963002533635   -4.49831980520699
C         5.20381373606200    1.70488379925061   -4.54354034258092
H         5.57857819357423    1.34789147451158   -5.49082378524402
C         4.22091345512092    0.99876634907220   -3.87156207743600
H         3.82943969532951    0.08368882261882   -4.29246981102635
C         3.73374792922368    1.45300432305975   -2.66014936186495
H         2.98250473150558    0.88160929167886   -2.13462376262941
C         5.05347066074957    5.87747558094081   -0.45984488171267
C         5.81341060922487    6.97105262375921   -1.17366836446750
H         5.81262827619410    7.86461376419287   -0.54993151977027
H         5.33286581322781    7.21061903856781   -2.12029149042930
H         6.84218099785305    6.65865804401465   -1.33667472771203
C         2.89950090730382    6.65800374502863   -1.08377530858838
C         2.33116322007948    6.27626836468044   -2.29972754203850
H         2.62596183400610    5.33456361089247   -2.74258645134210
C         1.41435085722927    7.09798431413274   -2.92710416928694
H         0.98166186982776    6.79430579299027   -3.86966066276708
C         1.05204407624368    8.30626420732973   -2.35449960468862
H         0.33284050577018    8.94442189201388   -2.84575561589186
C         1.61813628036023    8.69166592234192   -1.15011742135072
H         1.34237997631815    9.63448355806085   -0.70105036155011
C         2.53887784682853    7.87998462356878   -0.51506587686377
H         2.97305502406867    8.17301834975571    0.42996340191116
C         3.12586587707833    6.32046440123846    2.45006970138958
C         1.63984356115051    6.11071637931977    2.27243188825860
H         1.31961742637745    5.29867918964863    2.92541404036763
H         1.43855884339051    5.81630706253096    1.24227519370071
H         1.10618100663274    7.02295903925309    2.51872924325275
C         4.80480321047785    7.83238127395934    3.17977237925422
C         4.95148854685223    8.91603546765247    4.05313292665850
H         4.05929914851069    9.35546420761304    4.47186239012222
C         6.20145434679242    9.40075440767055    4.37656830715392
H         6.29545372889022   10.23416124660891    5.05858385793900
C         7.33693255222150    8.82712339854197    3.82512319570465
H         8.31641727029816    9.20898110866305    4.07385753490392
C         7.20493987452535    7.76215837649801    2.95033625870377
H         8.08582974333505    7.31210254593218    2.51251588656224
C         5.95650611542706    7.26035493772236    2.62854907672725
H         5.87616878023569    6.42420590487477    1.94545138534129

