65
CSD_code = WICBUG | q = 0 | S = 0 | Stoichiometry = C24H36O2P2Pt | MND = 4
Pt        4.47108478553534   -0.00003225281239    9.38682568582661
P         3.67665449557927    0.75617318665749   11.36689159404348
O         4.49214918971241   -0.04936825383461   12.49902715405947
C         5.39366444524282   -1.36510578836085   10.67517464524201
C         1.94181744699537    0.18890480733407   11.71417999303065
H         1.82938613203474    0.10453254066512   12.80254470361716
C         5.24742569220190   -1.13716632410861   12.05098589776197
C         3.86505663210095    2.47088734749449   12.04487861556396
H         3.14659758993397    3.11906403096327   11.53520275699905
C         5.28010268249622    2.90515292104106   11.67201328090919
H         5.42354274322409    2.81298422113681   10.59314782446352
H         6.00927603638694    2.26906798026698   12.17267824595006
H         5.46471423958891    3.93800050186980   11.96238210427892
C         5.80446362002280   -1.94130254383322   13.02859743551346
H         5.64742724010799   -1.69797656794836   14.06930537132249
C         6.13355807729733   -2.50326617994106   10.35047107664133
H         6.27055615826857   -2.76793608801742    9.31118621177370
C         1.85014273212846   -1.19708464987326   11.07698625801897
H         2.54176177145687   -1.88960784388498   11.55649740290423
H         2.11206194189466   -1.12513162271376   10.01291269737550
H         0.84285803273872   -1.60274144818182   11.16027543247020
C         6.54730170121257   -3.04732942433324   12.65253499993753
H         6.99014393547058   -3.68248656201053   13.40545133394211
C         6.70241803603766   -3.32909965737811   11.30901474819719
H         7.26881507368784   -4.19691522797457   11.00057268876060
C         0.88039794609529    1.11816680035639   11.14480795017844
H         0.94467457197514    2.11195953623144   11.58327142010469
H        -0.11224843090690    0.72054591298290   11.35268976115240
H         0.99579511068965    1.20241576250202   10.06631573524320
C         3.62003835750940    2.52449761597922   13.54692584863893
H         2.59234469782375    2.25899838431359   13.78621904650896
H         3.80954646425375    3.53037877395373   13.91903552955227
H         4.28521660582210    1.83571822701476   14.06210374183424
P         5.26536049443143   -0.75598790013085    7.40680814205288
O         4.44896784632026    0.04894485248125    6.27487845463147
C         3.54841123174844    1.36526702110443    8.09875248593636
C         6.99982289309112   -0.18773784680321    7.05892366948681
H         7.11096486634836   -0.10121610503120    5.97059152996678
C         3.69379672961049    1.13679874104657    6.72294598108017
C         5.07790553691780   -2.47078532834363    6.72886307592688
H         5.79695401335946   -3.11847040982740    7.23832907460306
C         3.66325799230758   -2.90603750275141    7.10208646342656
H         3.52008197937726   -2.81411042769521    8.18100211031296
H         2.93351246039801   -2.27036999296306    6.60171852439604
H         3.47925444876145   -3.93896744601100    6.81163378512033
C         3.13603290415172    1.94049083328901    5.74537338238277
H         3.29227725414900    1.69668823995040    4.70465786263395
C         2.80893710612653    2.50369301711756    8.42347861929393
H         2.67268627684238    2.76883232175655    9.46273980741882
C         7.09209942378453    1.19703542292393    7.69866975829580
H         6.39951588661091    1.89023866679192    7.22155904471564
H         6.83189465686232    1.12293413569765    8.76300411601592
H         8.09913694145201    1.60317789811505    7.61458936715015
C         2.39362979973063    3.04679894746810    6.12147510395962
H         1.95021888842149    3.68159915598999    5.36859087795189
C         2.23966255801511    3.32928992382327    7.46497619261873
H         1.67367653255621    4.19737310545275    7.77345376961771
C         8.06211723616425   -1.11791651821608    7.62515673297370
H         7.99767750958559   -2.11074917933332    7.18457307434712
H         9.05442664627919   -0.71953659212902    7.41704490129932
H         7.94796964294162   -1.20453936490805    8.70358831780111
C         5.32252755671716   -2.52407700386474    5.22674156002371
H         6.34977223506246   -2.25717009587510    4.98710244478650
H         5.13424602061985   -3.53020680315304    4.85469848418210
H         4.65625867663883   -1.83618188153639    4.71178609377368

