67
CSD_code = WICCOD | q = -1 | S = 0 | Stoichiometry = C26H36AuBClN2(1-) | MND = 2
Au       11.11649954523471   11.46586432415160   14.36184615051539
Cl       13.55635200898556   11.54068424760259   14.93685173314292
N         8.09149601242468   12.17131266362219   14.47278302066984
N         8.47181014577607   10.53474129551896   12.99993686835330
C         8.15212069733692   13.19637248409052   15.43003758273651
C         8.15804637663234   12.87649545658573   16.79285996463324
C         8.23751069516817   13.90243632941293   17.72282819017699
H         8.25441575085253   13.67081956100340   18.77838215090744
C         8.30530441447612   15.22162958034120   17.31850540127493
H         8.36952459298397   16.01151722069010   18.05488630654822
C         8.30729428496595   15.53070383320544   15.97136854668634
H         8.38323727009738   16.56470746404947   15.66651418136179
C         8.22957274588759   14.53128037554248   15.01368425543244
C         8.30413262295248   14.85880924365808   13.54054245249213
H         8.01967795212320   13.96647725640567   12.97603537986019
C         9.75132857027517   15.19924920768090   13.17770822626457
H        10.08647692290523   16.07976140272833   13.72252127443474
H         9.84120149676641   15.39369582422445   12.11030228399488
H        10.40136627063786   14.36477624754808   13.43616055269532
C         7.35456156543505   15.98962369322454   13.14211431720441
H         6.33914472488032   15.76661017742701   13.46541374973191
H         7.35332414164026   16.11045219275494   12.05992572357331
H         7.65684845653285   16.93565568811550   13.58585743523061
C         8.10701379080670   11.43433847484469   17.23819606098574
H         7.94076806696100   10.81299478870931   16.35326999957693
C         6.95553322057985   11.18676265636872   18.21547018863845
H         7.10397540430501   11.73191289914340   19.14519254249489
H         6.88737314367410   10.12596095925445   18.45107913607968
H         6.01048689099707   11.50464583618435   17.77823498700270
C         9.44755041746595   11.02645239079082   17.85032376223739
H        10.24237763625190   11.16315551621506   17.11783064484954
H         9.42557792350966    9.97884595656478   18.14574811898857
H         9.67452777647804   11.63042451035192   18.72647396349761
C         6.89182315516373   11.82426949892001   13.87520817197970
H         5.96457264473595   12.30140558368706   14.14197704865295
C         7.12111331954660   10.84060255841183   12.98688275401794
H         6.42485097591811   10.31533222880874   12.35578639722023
C         8.99656698815799    9.55772330952575   12.14031887374886
C         9.20142634281268    9.86008093043147   10.78662314415631
C         9.73326465585605    8.88793740346138    9.95437187296358
H         9.91284096964446    9.10772418738792    8.91215951343674
C        10.05359633935658    7.63484060726200   10.44344717206229
H        10.46894157164157    6.88660627522870    9.78164632709843
C         9.85549347066422    7.34517587645614   11.77894479860829
H        10.12035394586179    6.36659157641331   12.15371357456248
C         9.32793709602904    8.29387620001485   12.64278108833053
C         9.11729978193580    7.96722464513575   14.10215429426709
H         8.66366130330539    8.83935371942865   14.58170493124575
C        10.45459385145690    7.70114368798975   14.79284695111729
H        10.96545934996801    6.85157914957241   14.34470239231528
H        10.29792834514378    7.49351928665340   15.84991651029917
H        11.09346622320512    8.57870987673144   14.70547580834910
C         8.16412432779332    6.78064280183206   14.26706304599290
H         7.21700777105736    6.98261848811122   13.76919649952799
H         7.96781680171588    6.60162002335666   15.32289268210716
H         8.58868934062227    5.87395753384696   13.84038997197391
C         8.92184841321332   11.25837346183084   10.28461581214019
H         8.18116689434107   11.71842989255737   10.94552506464214
C        10.21125913406888   12.07887520383458   10.38046039308426
H        10.57240436330618   12.08365727583795   11.40821401969088
H        10.03421671335138   13.10617839803958   10.06621581474481
H        10.98338752568449   11.64690835035151    9.74648421311341
C         8.36009419735041   11.29045088814895    8.86290258075439
H         9.11484356883524   11.00793155768516    8.13224344307340
H         8.02295496839285   12.29745030398919    8.62164331461278
H         7.51409737543339   10.61166974698092    8.76836286487606
B         9.17356673846650   11.37736971406985   13.94044350296057

