43
CSD_code = WICDUI | q = 0 | S = 0 | Stoichiometry = C17H14FMoO9P | MND = 6
Mo        6.11182000443301    1.79428985365084    1.88456775737409
P         4.77822319705070    3.73269051589832    1.69973825529087
F         4.33137573664370    4.11768109760101    0.19612618374910
O         5.05158861054076    8.15238824176243    1.44684186831133
O         2.93566251053123    8.29557790925019    2.18705120681631
O         0.54038252934503    5.35522898035759    2.80124169706419
O         1.21147178559253    6.54439266577722    1.01688580817801
O         3.52263755743204    0.14810016263728    2.36766491321406
O         6.40369853760845    2.08932286107500    4.96002476163050
O         7.84278510905549   -0.76740593730347    2.05299966720638
O         8.64395616395130    3.55421705256189    1.49819988215764
O         5.83390612408730    1.43052506229786   -1.18936095910726
C         5.17255399028713    5.38587126357725    2.45711378693614
C         3.93599287748457    6.18484072774914    2.14279259195240
C         2.83959795582605    5.41215805063461    2.24879671792221
C         3.22244648164147    4.02087101524740    2.67690017126280
C         3.94857239838736    4.12089619974489    4.01520570503496
C         5.04439746949645    4.88117237780583    3.89122608823415
C         6.03721827791240    5.31108574083297    4.91125100299497
C         3.35789655524507    3.46358442156752    5.20984112265572
C         4.04983585919705    7.63033245249305    1.86816388597043
C         2.94687595786252    9.69293219013103    1.92806716989979
C         1.41336445777557    5.76681855005804    2.07855196357028
C        -0.13030440862397    6.94945927917245    0.78317325953206
C         4.47886768577994    0.73272280004560    2.17458178670035
C         6.28177457211285    2.01266931851171    3.83179332530118
C         7.20898218443577    0.17470175771776    1.99691671901565
C         7.72422342336138    2.89896047912972    1.62579333356403
C         5.93745316357924    1.56482048254601   -0.06805647095539
H         6.11103796491202    5.87966105506128    2.21287526698845
H         2.42054940855700    3.28619399167521    2.64154601699917
H         5.99035607139177    6.39256532781480    5.04074495090181
H         7.04602109508020    5.05999412940452    4.58237227966361
H         5.85209658156280    4.83317549362194    5.86905366693127
H         3.97633531678295    3.61149553168793    6.09055661931965
H         3.24690107379256    2.39304204079756    5.03330544036439
H         2.36563834572900    3.87385811225934    5.39718958310817
H         3.86601145309891   10.14220237787686    2.30984432992248
H         2.07763263869009   10.10454227297069    2.43448150121455
H         2.88471245511826    9.87503641538621    0.85338859285885
H        -0.79825427237224    6.08609425968277    0.81313453458798
H        -0.14227202415887    7.41127667572658   -0.20055402750141
H        -0.44352287622831    7.66485674350200    1.54616804317226

