57
CSD_code = WICGOF | q = 1 | S = 0 | Stoichiometry = C21H29ClN5Pd(1+) | MND = 4
Pd        1.87298393868818    4.73293767957608    7.72233444382750
Cl       -0.34232875024904    4.68035527481334    7.98094424076579
N         3.86575501910059    4.78247552623104    7.49541835883155
C         4.51523977706096    3.66805806632534    7.15933621041291
N         3.01531452755057    2.18195079875247    8.29717728316526
C         3.64979256396081    2.43006405674694    7.02006289033233
C         2.21513147618754    3.09348834074302    8.89304588222654
N         2.02558022830794    2.65927116120327   10.14938554400826
C         1.30568807349267    3.39528993787208   11.20226438310369
C         1.60866275669299    4.89067016107474   11.03463707735805
C         1.80255340793410    2.94061161131902   12.57613228114311
C        -0.19030679796551    3.11346331768801   11.06662506757987
C         2.66395774077176    1.45859861815414   10.32126392334221
C         3.30111989226224    1.16326256678380    9.16395605713564
C         5.89359126825609    3.66231639077544    7.01237612394104
C         6.59244359370392    4.84338420393914    7.21953629316812
C         4.51912875762447    5.92657630087037    7.69748153053874
N         2.73559406886636    7.32846816590206    6.91055297163902
C         3.64658349204097    7.12581654388958    8.01677648918057
C         1.86208085764091    6.37785032256281    6.51149406487869
N         1.37615846010684    6.78970743882078    5.32942625752243
C         0.46578109788032    6.01478174904276    4.46957847098337
C         0.86325055705235    4.53503300593160    4.56093814152421
C         0.61211200913972    6.47788390168333    3.01867664166287
C        -0.96936900183271    6.23457249123642    4.94716262218069
C         1.90759438191424    8.01358061180786    5.01609320459598
C         2.77520979269533    8.34826762514682    5.99988982725231
C         5.89744334588508    5.99363097744154    7.56595163629754
H         2.87346580691082    2.60934052552379    6.25454031893938
H         4.24740065289161    1.56295205605465    6.73562301828435
H         1.18423565421775    5.28057280051616   10.09870771239170
H         1.15762902926326    5.44259742873851   11.85443619435861
H         2.68809479622284    5.05871596028531   11.05832648211080
H         1.47880892965517    1.92891142773034   12.80466716804474
H         2.88748059741809    2.99486879666314   12.64262691342953
H         1.38372875831981    3.59392966953238   13.33614825983422
H        -0.38757406148999    2.04880629174898   11.16800046690144
H        -0.73696935419894    3.64135509211072   11.84189241475124
H        -0.55536327740886    3.44505675026896   10.09807340352008
H         2.63127585885332    0.89828883695998   11.23022229281669
H         3.90707630262581    0.32265448527834    8.89660040258826
H         6.41000474370915    2.75596739006336    6.74063694774055
H         7.66503636567523    4.86706282113603    7.11248046190461
H         3.06693506922865    6.92317382682475    8.93546477231287
H         4.25064298929858    8.02289036357285    8.15956293123704
H         0.68174374671367    4.13530337058134    5.56858947115142
H         0.26054136016794    3.95761205506142    3.86562717273813
H         1.91469576430753    4.41270163332321    4.28990423575763
H         0.20122396794061    7.47306900746378    2.87231421569233
H         1.65360728310281    6.46834608648433    2.70306361195871
H         0.05736977047884    5.80085807281716    2.37540768013486
H        -1.23092462572823    7.28882203431259    4.89368130509453
H        -1.65673745363524    5.67604284799824    4.31939411690617
H        -1.08638024410164    5.89787338577357    5.97394218449536
H         1.64776382076258    8.56115759416334    4.13641092893308
H         3.38923921474361    9.21616885276792    6.12221472648703
H         6.41720199927566    6.92303368992156    7.73352227088690

