78
CSD_code = WICQOO | q = 0 | S = 0 | Stoichiometry = C40H34ClCuP2 | MND = 3
Cu        1.23056257839366    3.27348017340807    5.32497562500703
Cl        2.22050542003456    5.16580041293802    5.80622054652459
P         0.82946071036557    1.72767968239039    6.85761781084955
P         0.25998359484167    3.39863735941195    3.31182538818255
C        -0.89039848325154    1.90391799722818    7.43366864420206
C        -1.82614532879685    2.29065850737986    6.47727233145732
H        -1.50497806941033    2.44168076004150    5.45229472456258
C        -3.14545056473604    2.49611941508664    6.83028869490108
H        -3.86094206760291    2.80274018971629    6.08137028761906
C        -3.53995873597970    2.32136718442540    8.14746348136663
H        -4.56911561721979    2.48708320105670    8.42964958586154
C        -2.61243590293099    1.94491087228950    9.10539874622472
H        -2.92012386914393    1.81637136457314   10.13299681903686
C        -1.28938190455086    1.73949537168048    8.75593464106802
H        -0.56607619554181    1.45814602000749    9.50847482170862
C         1.77070391132347    1.79511219095964    8.41545520830265
C         2.24879861659225    3.04907269094490    8.78728952325955
H         2.07867322233577    3.89891985117810    8.13725728009849
C         2.95757800367565    3.19221738016038    9.96609810074391
H         3.32881925213041    4.16422674895267   10.25420599450559
C         3.19787762446266    2.08822151394184   10.76833829552463
H         3.75402733894072    2.19923339320530   11.68770840684387
C         2.73502358517131    0.83753785374436   10.39020237816339
H         2.93176066227774   -0.02325581719888   11.01316465896878
C         2.02243159055209    0.68451077863546    9.21467932439400
H         1.66505486705811   -0.29149403919972    8.91524659636723
C         0.93676447314955   -0.04094927840499    6.38781845666777
C         0.01188798353186   -0.92637824596231    6.75905371685393
H         0.07723655694042   -1.96799141127375    6.48733204219788
H        -0.83473799387031   -0.64297887338277    7.36280289549280
C         3.24198596544155    0.42832463851577    5.61437707621402
H         3.28043390738006    1.25683955778220    6.31235949177445
C         4.34333692207776    0.14987231057086    4.82787057099063
H         5.22696705448969    0.76545594507953    4.90663562332515
C         4.30886538657973   -0.91117234668173    3.93793660332727
H         5.17114232263588   -1.13580393221866    3.32693999700949
C         3.16330018909340   -1.68309300220093    3.83311982980981
H         3.12608445203022   -2.50144692740093    3.12894310010043
C         2.06425360007383   -1.40966405195926    4.62428042462856
H         1.17274610980215   -2.00980122853108    4.52339344858282
C         2.09246049592686   -0.35609491033488    5.53679140285440
C        -0.28370152726394    1.93602130974407    2.36839047982987
C        -0.44086389730896    0.74518147398201    3.06742302717498
H        -0.23919258151386    0.72928301009336    4.13252720910744
C        -0.84146259458431   -0.40298924712577    2.41009784525995
H        -0.96745084085058   -1.32450915891963    2.95919723737812
C        -1.07809198695437   -0.36872800591217    1.04612520097612
H        -1.38535221387891   -1.26517093249277    0.52789977717403
C        -0.91982079849487    0.81558652372697    0.34338554445721
H        -1.10570535904733    0.84035211276465   -0.72056113325162
C        -0.52609256212424    1.96719973745327    0.99863779347028
H        -0.40606668866021    2.89188284657406    0.45157003716835
C        -1.26327428865396    4.37352762957885    3.50326291693348
C        -2.46283681639279    4.07621504664235    2.86671087202458
H        -2.52301692761460    3.24231237640691    2.18133350886457
C        -3.58216255354109    4.84988053661288    3.11900947578036
H        -4.51411255788994    4.61951320087980    2.62266414147916
C        -3.51281792823928    5.91376125752347    4.00364375916425
H        -4.39124048387925    6.51244523392358    4.19577517321627
C        -2.32070872826702    6.20509222052371    4.64821199693246
H        -2.26729509091151    7.02871784995494    5.34459322064716
C        -1.19975861714560    5.43369280145945    4.40731026054756
H        -0.26792684750012    5.63887200473771    4.92110990191966
C         1.19504756168475    4.31341983084756    2.04228744471810
C         1.03816461004750    5.62414583679656    1.86016475179003
H         1.67271536186803    6.17980870404834    1.18876321248371
H         0.30013320447121    6.19080236728348    2.40324585761372
C         2.20541502484085    3.50091414447996    1.35098025672857
C         2.81569384298193    2.43657560545010    2.00947884766910
H         2.56928170458677    2.23709455666994    3.04774751197373
C         3.75288147789055    1.65337188153779    1.36468058768321
H         4.21584971965218    0.83369377166576    1.89323585853198
C         4.08930063859539    1.91671582258431    0.04728108931328
H         4.81769221908105    1.30135604348756   -0.45986851888264
C         3.48665728680844    2.97112605395143   -0.61873412877556
H         3.74469262605688    3.17872244417052   -1.64711700531482
C         2.55051199855613    3.75728378335822    0.02583381347309
H         2.07103294932858    4.56792002498543   -0.50355042082262

