59
CSD_code = WICRUY | q = 0 | S = 0 | Stoichiometry = C28H24MoN2O4 | MND = 6
Mo        6.68691086170647   10.48106443400634    9.48645146103257
O         8.21530390803236    9.89096439949391    9.72270292747140
O         6.58725727815598   11.05580669696529    7.94524610221986
N         5.94157053649762    8.64087466553311    9.06439011571523
C         4.97779010135180    8.40378229842957    8.22732586804210
H         4.73688154353324    7.37280151231063    7.96075157070409
C         4.14474905351941    9.43494972503144    7.73524346344422
C         3.95201492590928   10.57603373446102    8.57362608089419
O         4.62006694344720   10.77776329517903    9.64628779095157
C         2.86927124924460   11.45654108335327    8.25350465147639
H         2.71711449489691   12.29631627945928    8.91623781629609
C         2.10300430099147   11.27738267470819    7.15070129959825
H         1.31252884405023   11.97740810604572    6.91697340787877
C         1.54401390378742   10.02922683164735    5.10318133779075
H         0.76309816463895   10.74730077839698    4.89726176369236
C         1.77814447974389    8.98983588957716    4.24021546141590
H         1.18167060204356    8.87284126057486    3.34787594565109
C         2.80828131651659    8.08624482956286    4.51119713774062
H         3.00469746182397    7.28044020658933    3.81903967789230
C         3.57951187948947    8.22207054285598    5.63893388024527
H         4.39436945193934    7.53513132677263    5.80884879650783
C         3.34659646717697    9.26135781451998    6.55648200623709
C         2.31817733400897   10.18894570520172    6.26390765862733
N         6.22711274035482    9.53730130373080   11.44197844690849
C         6.07025122185068   10.12634872779638   12.57505102529958
H         5.78359587137078    9.51646900821689   13.43312982608931
C         6.25869711122438   11.51472489449457   12.83781917131811
C         6.62074980650246   12.39453589499323   11.78773005885988
O         6.73910104652348   12.00968549922203   10.56293518642945
C         6.86350698820858   13.77084141258463   12.07704183504698
H         7.14706131097449   14.39776511947712   11.24334206857975
C         6.74604742047333   14.25439245321362   13.33731717358634
H         6.93706806940019   15.29766162960377   13.54538695409986
C         6.24496872224070   13.94223909344783   15.71063616054996
H         6.44875099324807   14.99304792573545   15.85774572184314
C         5.87775670508204   13.15138939552813   16.76577149368788
H         5.78698198242373   13.56204634262369   17.75978676188553
C         5.61738951217526   11.79810523120397   16.54161538069934
H         5.32238940996419   11.16837041513300   17.36828622326518
C         5.73103339635442   11.25852487740089   15.28515891725819
H         5.51270498417840   10.20851404803015   15.17212043815867
C         6.11249665509484   12.03631819554886   14.17430880102618
C         6.36676797855807   13.41283339484795   14.41375044164901
C         6.48355511656980    7.64130161838066    9.95391979617049
H         7.57701238309362    7.74558095255555    9.89776456909409
C         6.04168558224341    8.09894477171741   11.36312171576339
H         4.96225637132254    7.88559772741676   11.46612647393211
C         6.81813870028069    7.27388388602487   12.39553131426564
H         6.54218490438410    7.55517685185158   13.41302016084637
H         7.88376223514156    7.47276873326331   12.26734867682418
C         6.52133296250316    5.78842784202553   12.19225384993715
H         7.10104322884341    5.20278218603675   12.90749456223652
H         5.46275186470904    5.60376012987734   12.39221424695621
C         6.85259510259874    5.33632218092640   10.77253215535714
H         6.58924041451322    4.28404185724207   10.65252368920643
H         7.92562181280543    5.43618310554369   10.60151465321532
C         6.10128547155328    6.17818374890080    9.74089469526743
H         6.37991198955343    5.86007443076841    8.73457798189852
H         5.02436483117434    6.03837102396018    9.86846315126220

