77
CSD_code = WICRIJ | q = 0 | S = 0 | Stoichiometry = C30H34N8O2S2Zn | MND = 6
Zn        8.10342409167136    0.38121022439280    2.65509995710131
S         9.84714794787354    0.00547461446412    4.44549887494525
S         6.24067415498145    1.27951915237739    4.10920709204843
O         6.70052190041728   -0.08474768433440    0.93452036337767
O         9.63037937885360    0.30019359811806    0.97950695028022
N        10.37079982596000    1.92520512315001   -0.48917346552287
N         8.12859278259509    2.35915000539665    2.12582844854246
N         7.40848750283930    3.27569745246567    2.69330829432499
N         5.95319671390456    3.89478762907643    4.30392514510848
N         6.04107538200862   -2.09663185112841    0.00548415922542
N         8.08983893518622   -1.66313961047507    2.77467162747477
N         8.75605264299370   -2.34694453590096    3.65175779795073
N        10.08775586837563   -2.41227804668560    5.47318293673798
C         6.69572777577637   -1.31452054329774    0.90843299386536
C         7.38962333244072   -2.21194064274998    1.82585431172802
C         7.10116271424653   -3.55797485517741    1.40194293553047
C         7.46481077396897   -4.80834185807332    1.87396380730449
C         6.98741717846254   -5.92647274002002    1.20758289242694
C         6.16514292105828   -5.80249338874816    0.09689089614830
C         5.78860942623859   -4.55521629198709   -0.38822516403945
C         6.26167834424616   -3.44295603487389    0.27268696835848
C         9.51610932530665   -1.66044066473199    4.52074932803255
C         9.70587140898819   -3.79810947008396    5.61848083273057
C         8.31287965149292   -3.97004942223014    6.24436442744013
C         7.95207616344824   -2.86779109797685    7.24397751831222
C         9.06555582459063   -2.51037602811238    8.23512558345703
C         9.98565162998406   -1.40249254416235    7.72037368523122
C        10.86244885600240   -1.83707620067960    6.54342172448795
C         9.64744972469580    1.45879013670893    0.56670773989695
C         8.89814202282003    2.58989364271503    1.10296165469006
C         9.22651728511836    3.73709561220188    0.29629732228654
C         8.83994942029182    5.06687935338367    0.32202495505642
C         9.37174685873274    5.92409835471758   -0.62904017796018
C        10.26964082345948    5.46781902296038   -1.58336606769032
C        10.66994114451201    4.13697937612841   -1.62159218729013
C        10.14268932215042    3.28359127250696   -0.67741922781050
C         6.58256336367282    2.88842519207530    3.67915237175482
C         6.33828318382710    5.26046014529895    4.03172489410871
C         7.68482194187843    5.63828738364868    4.66885203073671
C         7.96252307743315    4.91047199005017    5.98697156230824
C         6.77808608870935    4.86989152792649    6.95931711337283
C         5.88473734869971    3.64529787901806    6.75626260008549
C         5.09854232311632    3.67630954990265    5.44331505652805
H         5.47633766854182   -1.74409669434857   -0.75022372752892
H         8.10368388182867   -4.89688856417314    2.73811207246087
H         7.25882421409658   -6.91128396667198    1.55736866983753
H         5.80785975208090   -6.69062052455672   -0.40247792583034
H         5.14715271687536   -4.46518145380385   -1.25192916934733
H         9.72269246597297   -4.26615574202109    4.63196576329075
H        10.46115733555028   -4.27709665734898    6.24414985843895
H         8.27902092441584   -4.94391139717816    6.73692298533669
H         7.56251286663903   -3.96624781760611    5.45284246888904
H         7.06888967242971   -3.19874873664719    7.79443345270924
H         7.66761088529841   -1.96626412075655    6.69761329510325
H         8.60694492276190   -2.15567568521295    9.16077433292856
H         9.64852469725803   -3.40032148468721    8.48196570450686
H        10.64148390676015   -1.06525737940294    8.52512433974121
H         9.37872672429851   -0.55298574063782    7.40313264593849
H        11.58916011654805   -2.58535689367561    6.87203605069723
H        11.39903018336983   -0.96992692561223    6.15271698903403
H        10.98442499035158    1.36021796410036   -1.05358468711141
H         8.14220327358205    5.41428465937374    1.06714636988705
H         9.08377819741432    6.96474210608415   -0.62858097816758
H        10.66823221292511    6.15787783661918   -2.31188345570597
H        11.37022398098780    3.78832090223719   -2.36563457950858
H         6.39685864490529    5.39341319208057    2.94939798081472
H         5.54533078229140    5.90272138088802    4.41912676367766
H         7.69308504759010    6.71788075177374    4.83182614536307
H         8.48965326882960    5.39606717107858    3.97375280868627
H         8.27464622034162    3.88627477443656    5.77303239517990
H         8.80850801978743    5.40790353098358    6.46597364975533
H         7.16632638756183    4.83027069291992    7.97943478889824
H         6.18875112043624    5.78520088262536    6.87163880547286
H         5.16970930567545    3.57106607525489    7.57766778363691
H         6.50329500170837    2.74644694420595    6.76683431729338
H         4.35825041447565    4.48093986406105    5.46722941503419
H         4.58196381335959    2.72365632833490    5.30868410784649

