79
CSD_code = WICSEI | q = 0 | S = 0 | Stoichiometry = C34H39ClO2P2Ru | MND = 6
C         5.04669378687615    7.85094644090050   16.28808482748796
C         4.92420480629197    5.44137761667879   17.44029334878121
H         4.86710177541834    4.45749831957897   17.90607586664080
C         4.96328030060632    7.82986785643475   17.81198220833114
C         4.85233094709684    8.96921735336006   18.59961425917271
C         4.78090670417412    8.84855873498072   19.98566744944451
H         4.70883231989679    9.72795126804314   20.60659799288372
C         4.81278579397684    7.60060072727457   20.57795109025818
H         4.77106843085573    7.51569598775945   21.65391724367755
C         4.87619386397675    6.45611252201128   19.79618537691583
H         4.86943815397028    5.47835571945785   20.25629997243086
C         4.93853803822925    6.57743679010394   18.42332027815496
C         6.17019623973718    6.87635117776720   15.94521715168083
C         7.17014633491453    7.13871066082744   15.01682240270490
C         8.15011770775755    6.18072492121851   14.76549898003590
H         8.93743268818259    6.37938316369673   14.05509759956352
C         8.12751486571313    4.97049655201549   15.43163287459419
H         8.89796055043254    4.23796192135656   15.24068695823277
C         7.10836820650838    4.68414109342124   16.32854796924173
H         7.07246384150641    3.72662000240236   16.82816917305169
C         6.13383880229956    5.63037726701284   16.56946692298257
C         3.81570917010453    7.01184823689002   15.91980787334437
C         2.78863872391757    7.37054706080758   15.06894318841244
H         2.79776796243840    8.33114806774444   14.57937246972016
C         1.73129568181743    6.50438840946734   14.83021658247937
H         0.93898244878053    6.80678079482078   14.16134920586838
C         1.68775403576475    5.26579427292485   15.44014297715474
H         0.86321343309134    4.59411478569962   15.25287284452641
C         2.71073010845764    4.88696565620884   16.29620970152311
H         2.68973552850146    3.92018394010950   16.77941943833336
C         3.75893995967103    5.75169545539230   16.52960433246193
C         2.98698977503567   11.03634550262223   17.89227214701117
H         2.81928547213153   11.25788043644104   18.95180949754536
C         2.07447669459018    9.88886714491570   17.47803834634846
H         1.03101172214755   10.18558857133957   17.56998364066883
H         2.23958510529082    9.01028209508983   18.09978826654782
H         2.26336745401129    9.61273792975127   16.44204984433845
C         2.71544849448175   12.27622002414844   17.04616026799922
H         2.93092341678140   12.06696613592949   15.99770845005471
H         3.33175523261083   13.11747251918702   17.35682738892154
H         1.67030462657547   12.57054784909087   17.12828777723073
C         5.75059529418906   11.73752499550966   18.71579095676927
H         6.52018489468770   11.10615058599650   19.18029586525328
C         4.96837845356574   12.45355990598438   19.81550157180671
H         5.67242194285713   13.00238446527824   20.44013545488022
H         4.42347210409907   11.76727898638537   20.45833761876080
H         4.26473665439882   13.17090177885507   19.39960156492583
C         6.44839235165003   12.77000111965768   17.83252663842773
H         5.72845041596275   13.35434257805189   17.26109848432646
H         7.13364274572661   12.28021844048399   17.14336384326256
H         7.02928161544920   13.45336392922748   18.45029661431632
C         6.52699876144736    8.28319151190035   12.45856227896772
H         7.34664051810619    7.72392434586940   11.99467137843062
C         5.29190758027642    7.39311219617594   12.51519905181398
H         4.48032430980941    7.90787163289311   13.02683639605948
H         5.49810879509968    6.46732433388080   13.05012646377111
H         4.96051228635043    7.14407673802905   11.50850137777540
C         6.24259332597901    9.55465596195022   11.66511208500043
H         5.91000384161347    9.30772641298176   10.65809051708912
H         7.12591135080441   10.18533986220263   11.58714126060801
H         5.45636354260947   10.13142938805112   12.15369097629907
C         8.81456299120291    9.32998426017064   14.03338982750896
H         9.29912947904896    8.90595712838743   14.92342191334052
C         9.56128450738894    8.85228625495527   12.78909421520000
H         9.18239397904364    9.33231323217598   11.88983593147550
H         9.50837677542483    7.77517327625313   12.65462429247889
H        10.61221743246828    9.12073657827708   12.89165134412645
C         8.89841470459383   10.85246145198985   14.12348902332767
H         9.93809338024846   11.16975496751390   14.05659528436099
H         8.50539397718146   11.19974758704403   15.07702078487685
H         8.34342657594327   11.32895601017185   13.31659957002017
C         5.98016719624781   11.60494373794478   14.97090327402437
C         4.10605147024425   10.17112469386799   14.48859644228027
Cl        7.47621897476250    9.59891716523363   16.97915115937096
O         6.01617763852777   12.63169006214659   14.46125589822742
O         3.30093194263039   10.56810375169067   13.76162246114461
P         4.76465428696420   10.52431627136171   17.67707723394678
P         7.03822750357715    8.74326666863240   14.18901257190312
Ru        5.55612719510462    9.88022674800637   15.58198418708486

