46
CSD_code = WICVUC | q = 1 | S = 0 | Stoichiometry = C12H29IN3Pd(1+) | MND = 4
Pd        2.92990870604483    5.37309340980825    3.78168583575767
I         1.68192781062585    3.95942606609959    2.02260355159125
N         1.23731896470672    6.48646708106987    4.41963565472980
N         3.96225588013133    6.48665979826127    5.20744969492071
H         4.03088377591940    5.95297091218257    6.07888878837370
N         4.87768497967249    4.63154801555892    3.27623592604707
C         1.70663990080807    7.25811954598791    5.59278271008678
H         1.63032771545349    6.61734214462645    6.47620543710025
H         1.06630904972061    8.12990490877388    5.76082365681599
C         3.16485559492846    7.69054137079583    5.44199117833372
H         3.28481679256109    8.36322026103350    4.58548500272919
H         3.48787438672684    8.23429226696916    6.33991896872988
C         5.30205576985239    6.69369683969980    4.65908796616642
H         5.99475166588669    7.10416971813896    5.40741583426029
H         5.22689773787699    7.41632080468403    3.84135988741859
C         5.83596213759440    5.34854946357795    4.15705031660616
H         6.04324071093094    4.72248519290501    5.02881464249007
H         6.78469800358478    5.50449625065664    3.63103507962548
C         0.94574140798404    7.36452305867382    3.26061799065285
H         0.62611976209181    6.71918385936712    2.43612332912614
H         1.87877173387466    7.86445162775657    2.95797965296855
C        -0.13210415785692    8.42653883148013    3.46843137816628
H        -1.07130505776675    7.98324956947267    3.78579905468327
H        -0.30573903630563    8.92058248217524    2.51629711839693
H         0.16131349295151    9.19085261255358    4.18367986670720
C         0.05400630074657    5.68744282255150    4.79703347925710
H        -0.42764171603460    5.34401956974934    3.87892952388530
H        -0.65664631297792    6.31360834534122    5.34769934453428
C         0.41912889602993    4.46835856466663    5.63858716138678
H         1.22284448564736    3.89655760791746    5.15499726380311
H        -0.44734473066829    3.81709892854316    5.71022488581960
H         0.71942837642181    4.72901159909471    6.65214524705582
C         4.97812906358026    3.17547326098568    3.51583626362486
H         6.02941800746603    2.86561538257144    3.47141417915053
H         4.44214013199696    2.66441215456184    2.71279682356823
C         4.35666288136195    2.74964464964285    4.84291324656516
H         4.94250747508323    3.06056163551499    5.70672309634786
H         4.28744216745775    1.66555074170162    4.86680190267271
H         3.33380674769460    3.15096194408103    4.93044284295483
C         5.16140553364543    4.91005809714021    1.85158659949179
H         4.57832321801702    4.20798859561461    1.25140399802930
H         6.22300554669937    4.72420004526545    1.64628189443551
C         4.78817911777317    6.32537287875070    1.41799328092774
H         3.77730213904012    6.58723744933696    1.77916370001873
H         4.76326589901482    6.36065747061514    0.33170673838040
H         5.51142904379412    7.06568216446148    1.75322000552379

