122
CSD_code = WICVUB | q = 0 | S = 0 | Stoichiometry = C61H50F5N3P2Pt | MND = 4
Pt        5.32420961500879    7.99866419695033    1.30925546782441
P         3.56260912617916    6.61874499629834    0.85428619441869
P         7.10133803885097    9.35830248161086    1.78380811563238
C         6.62478165301683    6.78167404087716    0.40685846673467
C         7.54024098241928    6.32266124442960   -0.25624007375360
C         8.55202187135544    5.85703088124714   -1.02357864516968
C         9.46733894140263    5.50866847550907   -1.74021661767120
C        10.52256918980747    5.14599409913329   -2.58115045938796
C        10.95765306744146    3.88621475172474   -2.96630105185966
H        10.62267419399682    2.90111370822160   -2.72014386533961
C        12.83980706856195    3.17647107649143   -4.46467228567509
H        13.51948672795301    3.75883684731459   -5.09462130574932
H        12.22700870734083    2.53102349530883   -5.10286447377913
C        13.61526160798566    2.34994141670527   -3.46888146847663
C        13.55332612343453    0.96440761391072   -3.48669552561205
H        12.95136881388722    0.46275351860184   -4.23143066814857
C        14.26277348279137    0.22186075302328   -2.55816284951203
H        14.21103885796102   -0.85658733715610   -2.58163964370758
C        15.03112648658725    0.86002986914604   -1.60025680059692
H        15.58094533266676    0.28038997491897   -0.87391366744088
C        15.09253260008286    2.24366431033844   -1.57472825144786
H        15.69017977385486    2.74565109190777   -0.82860070661442
C        14.38986526241964    2.98582125749134   -2.50592280157920
H        14.43724235810336    4.06540117917345   -2.48907651730574
C         4.04521556291234    9.37322142035963    2.12937527686577
C         3.70485481836646   10.44519596334339    1.31359252989368
C         2.85727902448187   11.47020292660421    1.69677655578857
C         2.28430449125973   11.42673084398706    2.96141524445988
C         2.58015049045108   10.36900750680664    3.80996793592205
C         3.45446042900474    9.37968220482641    3.38470867278260
C         3.16043713541312    6.17479936924850   -0.85549635571490
C         4.11128543553187    6.37457208506270   -1.84959773693984
H         5.07276342667067    6.79657860354824   -1.58431477103613
C         3.82635202060124    6.03267319336740   -3.15770724177411
H         4.57062858753989    6.18990641244653   -3.92497569630990
C         2.59255618906194    5.49076078677648   -3.49990213457876
C         1.64312517648691    5.30448130034666   -2.49976427156127
H         0.67722792875248    4.89059437402351   -2.75377257477207
C         1.91723557527496    5.64422559544364   -1.18959333963412
H         1.16522454325729    5.50925003658707   -0.42319351995511
C         2.27834824075505    5.14413519327718   -4.92230521672707
H         1.55030574686932    4.33803636095843   -4.97578931093318
H         3.17788351853366    4.84741448548073   -5.45635011187299
H         1.85725358143660    6.01265522417188   -5.42996394907271
C         1.97929597357907    7.23523094272278    1.49750276696362
C         1.36481472951366    8.27457737048935    0.80184444829844
H         1.75605320963683    8.56997042175392   -0.16380991100650
C         0.27689949104987    8.92807519207837    1.34285407367930
H        -0.18669809596231    9.73859620225335    0.79846141037244
C        -0.21830307853866    8.56912915600224    2.59293610890267
C         0.38730247120281    7.51782143524141    3.27169019009645
H         0.01130479483720    7.22627008121738    4.24184461537407
C         1.47824684599269    6.85796131448740    2.73738327411768
H         1.95164041575766    6.05823045426104    3.28958109820638
C        -1.35073877661183    9.32484060871170    3.21368208302199
H        -1.95490990450425    9.81737513521806    2.45566119014479
H        -0.95562975718723   10.09137976693433    3.88148951535775
H        -1.98361331029648    8.66492564510346    3.80282347840471
C         3.83128117112131    5.06193150751265    1.74134845074478
C         4.56841266607936    5.16821922340134    2.91930847755507
H         4.92828402493305    6.14831693350770    3.22682716508228
C         4.82442731927658    4.04818171797024    3.68193825034175
H         5.39165761215518    4.13618774457361    4.59748689693340
C         4.35951955133730    2.79836645193391    3.28101914474558
C         3.63616750483849    2.70109458821682    2.09866590552383
H         3.27634667874220    1.73481910324828    1.77397867032722
C         3.37005257453354    3.82001380830166    1.32945716211940
H         2.81317225906013    3.72497603290278    0.40811411496309
C         4.66098601310589    1.58224439743317    4.10140529372104
H         4.54920096972540    1.79562164598654    5.16248613781724
H         5.69059795141218    1.26649486456561    3.93125000012927
H         4.00404298474603    0.75801457271462    3.83519042374890
C         6.64855927693873   11.07027464626280    2.18096596798807
C         6.10555179111606   11.33614500853029    3.43667194422262
H         6.11233088141365   10.56250097022304    4.19385129199996
C         5.55584162633929   12.57166578828990    3.70992990325050
H         5.13158398669648   12.76530844275956    4.68506913416332
C         5.52178069471447   13.56642415707046    2.73708265021499
C         6.08372101359138   13.30051862707601    1.49369033772935
H         6.06846546337601   14.06498155662494    0.73023195516400
C         6.63881470730600   12.06633893895610    1.21174559807930
H         7.05507543721544   11.86718609371098    0.23415325284175
C         4.85646805585814   14.87855243125320    3.00966423555910
H         4.87026569012907   15.11118135695159    4.07181581561755
H         3.81526702709544   14.83253794113705    2.68788724639344
H         5.34007063306907   15.68305683013347    2.46043586192639
C         8.08286543289021    8.82587339294418    3.20682776909324
C         8.92791095412710    9.69333667737275    3.89149060722277
H         9.00239409614381   10.72761149417662    3.58273134574846
C         9.66178314267474    9.23216323298259    4.96739340173810
H        10.31759289884919    9.90961369878336    5.49613122906547
C         9.56819114504958    7.90747992510067    5.38152864017731
C         8.71927869350893    7.04853932634508    4.69127521109273
H         8.63751335923364    6.01746201793599    5.00437086029277
C         7.98240385221005    7.50034336494511    3.61419852009524
H         7.32512206656645    6.83219416390983    3.06779627599355
C        10.34557837970526    7.41990958862999    6.56497757546986
H        10.66342982175487    6.38969684687460    6.42104382947267
H         9.72149025676238    7.45644569379995    7.45855899489454
H        11.22123322424554    8.04040755670754    6.73925145275070
C         8.25017967135454    9.45891497445967    0.38985462503195
C         9.63187090980366    9.41180283912578    0.51680274666965
H        10.08631853027478    9.38275797080981    1.49738359422862
C        10.42219789583377    9.37676769560868   -0.61603708553127
H        11.49671935107176    9.32290740220120   -0.51527956594253
C         9.85992071779888    9.38368686023506   -1.88807485225637
C         8.47419924950838    9.44592134351495   -2.00273486267324
H         8.02163227062270    9.44823614372194   -2.98394199691679
C         7.67497686948501    9.47410213485551   -0.87929933147547
H         6.59288965687131    9.48546897656507   -0.96763080152689
C        10.72874597700169    9.27408788535906   -3.09675720240570
H        10.20972008143383    9.62088217554827   -3.98670642285961
H        11.00391038965035    8.22595323298565   -3.24231450511192
H        11.64552913002170    9.84595265237507   -2.97136654657643
F         3.74179537849740    8.36910441410559    4.23881335709927
F         2.01574864403872   10.31829373780917    5.03117756998673
F         1.44660366956424   12.40120869886466    3.36007797386892
F         2.57802631133836   12.49609591144300    0.87181797189891
F         4.24604005549765   10.47219699142684    0.06975072966851
N        11.32807583030413    6.05260000690524   -3.19940076305148
N        12.19334194075102    5.43702144089880   -3.90915498883022
N        11.99676776560140    4.12976259315927   -3.79559153760551

