120
CSD_code = WICWAI | q = 0 | S = 0 | Stoichiometry = C59H50F5N3P2Pt | MND = 4
Pt       13.29642249453712   -0.57524761269276    5.94077652301506
P        12.99185948292671   -0.80938704548597    3.69255860577519
P        13.44885160002934   -0.17786559098359    8.18212325222929
C        12.81509395264761    0.80959366015296    2.90574665590260
C        12.03317952032307    1.73087907621714    3.60161323089773
H        11.51678315998198    1.40916513420804    4.49992765549904
C        11.95316600681030    3.03727593731195    3.17313360759236
H        11.35784330016590    3.75049380727388    3.72482742192005
C        12.66954632776898    3.46203779567432    2.05808235416353
C        13.43365915145263    2.53394854448951    1.36342571349921
H        13.99697500016854    2.85252446854604    0.49791971490924
C        13.51441318515164    1.21748744509828    1.77960429539867
H        14.13996388617700    0.51709876017760    1.24413994541284
C        12.67066370821608    4.90356668659859    1.66529481591351
H        12.92329592408793    5.02753104649722    0.61490064366361
H        13.42346913306636    5.41589837805582    2.26533226413087
H        11.70493207983528    5.36565957935301    1.85955350436476
C        14.32906462746551   -1.68000178766535    2.84751966585492
C        15.48833896512567   -1.93364878095285    3.57194088460923
H        15.53784117522092   -1.60073139139355    4.60502755838044
C        16.54184942315557   -2.60194043633135    2.98162798008383
H        17.44114304926897   -2.80144141191519    3.54651860680831
C        16.45718235179656   -3.02992046026335    1.65992252545337
C        15.28978694396932   -2.78074700947391    0.94635323625177
H        15.21056636533192   -3.11598714725715   -0.07833368029650
C        14.22901540886227   -2.11456262695834    1.53046758694634
H        13.31846577542229   -1.93791342513121    0.97330969182019
C        17.60211563518423   -3.76383259588903    1.03269818279178
H        18.53546725470166   -3.22874855540557    1.19868335777222
H        17.45140676506429   -3.88454074868544   -0.03699722040646
H        17.70221027702923   -4.75261004403538    1.48020606650717
C        11.51105536958365   -1.76415251502440    3.25005471019782
C        11.57895616014341   -3.15389209151754    3.33095379337355
H        12.53712677004188   -3.63153251892731    3.48937666453916
C        10.43419624486402   -3.91543834978091    3.21825827927631
H        10.49818467404256   -4.99213074485264    3.28879897317345
C         9.19328450060554   -3.31295900366639    3.03404032025954
C         9.13620182649836   -1.92814346507013    2.93054323000875
H         8.18096571324438   -1.44619217061510    2.77852577074486
C        10.27854894639464   -1.15711816690566    3.04035398639267
H        10.21478487053975   -0.08040672983732    2.97064136728838
C         7.94568129890358   -4.13791477833586    2.98763717607021
H         7.55237431290007   -4.26149989424788    3.99752838092550
H         8.14666381703878   -5.12731752483206    2.58339656330900
H         7.17915571478407   -3.65461162923692    2.38649833292814
C        13.34214309457588    1.59465717420334    8.55363998386606
C        14.14584725326047    2.25803128829393    9.46838681193677
H        14.86635427169860    1.70984648552618   10.05874059990881
C        14.03917695527726    3.63122909118746    9.60845451624286
H        14.67493898893553    4.14384151609401   10.31774023848318
C        13.14119808285725    4.36203654156939    8.84164578911246
C        12.33819907973845    3.68763875312823    7.92594870549271
H        11.64362777812582    4.24605512521217    7.31498560496335
C        12.44078355324680    2.32123877047937    7.77754246396085
H        11.84142285353085    1.79844202961858    7.04104466438033
C        13.02997164339629    5.84889043258635    8.99149360330521
H        12.88871319038944    6.32249931384291    8.02163634117132
H        13.91686870243250    6.26115569591635    9.46774145238433
H        12.16739616908389    6.09801655238486    9.61048714450529
C        14.95888794457642   -0.77880270492602    8.97227745906816
C        15.09182982060781   -0.90536199491869   10.35080662351996
H        14.26622937261005   -0.64080573898976   10.99838763511341
C        16.27336737749502   -1.38447190732493   10.88494661390498
H        16.37285569343893   -1.48229732409148   11.95698893749976
C        17.33328070500106   -1.74972472942143   10.06224771843661
C        17.18680640079083   -1.62711316402786    8.68331921699333
H        18.00178787166235   -1.91782673315259    8.03615278370222
C        16.01163687865094   -1.14743061933060    8.14149962547504
H        15.88281990687389   -1.05251022374129    7.06771743228539
C        18.61402358819607   -2.27041382448534   10.63761755912491
H        19.43232428002053   -1.58679861608390   10.41299317982815
H        18.86065032095773   -3.23675029677964   10.20064470778494
H        18.54259559082613   -2.38259690442662   11.71639057342513
C        12.11637765670247   -0.94555231840898    9.14853349186260
C        10.91892770574627   -0.28670990220024    9.40178270671640
H        10.82524982741185    0.76586956763783    9.17400512771789
C         9.84595084162142   -0.97847154462121    9.93216142873362
H         8.91567099023619   -0.45975495930591   10.11454232528412
C         9.93677123220693   -2.33675150391679   10.21262726506340
C        11.14549457148208   -2.98503126444841    9.97682643551952
H        11.23633985891424   -4.03911371318403   10.19775668137147
C        12.22071167468121   -2.30333403452047    9.44546227791985
H        13.15064613706056   -2.82107961243798    9.24935915816157
C         8.75093377148990   -3.09646950624319   10.71772425838068
H         8.08827937449396   -2.45203619324276   11.29051262350504
H         9.05952344598468   -3.93482904096954   11.33786071487578
H         8.18586324738925   -3.49367622585949    9.87351865372047
C        12.05247654222123   -2.16620601057336    6.28946893144317
C        12.34102155514190   -3.51359662651862    6.45161447429107
C        11.36998838871346   -4.47692018760746    6.68885356998006
C        10.03817322681413   -4.09502212433033    6.77215800760777
C         9.69859948168795   -2.75692014435237    6.61737560836719
C        10.70507770858899   -1.83801459260319    6.38255611607414
C        14.35098861228931    1.09080953761406    5.60715601008063
C        14.68433485595437    2.24733389758486    5.46415800150010
C        15.01356263629814    3.60958143490966    5.35615322767765
C        15.51372668022519    4.45263351378974    6.33676676713484
H        15.82325617497557    4.27895108278276    7.34525272912575
C        15.98457314450013    6.91572990920555    6.31798320643781
H        15.24648241214251    7.25600841679870    7.05362803516619
H        16.01819780843367    7.63610650578226    5.49471245053722
C        17.33717493246759    6.76970719483087    6.96440544244543
C        17.51075725407668    7.00454554713178    8.32052173410361
H        16.66887759392093    7.31612439813027    8.92308785474621
C        18.75638300765507    6.84807526317350    8.90403390377365
H        18.88225093098745    7.03672203964455    9.96004442787657
C        19.83609984305895    6.44747640226249    8.13664862606922
H        20.80727417613905    6.32408462477157    8.59218268481945
C        19.66790581769849    6.20478834532719    6.78318083421672
H        20.50755561962485    5.89106541603240    6.18109738171923
C        18.42507137408330    6.36590574950372    6.19936559434300
H        18.29106516299202    6.17578354311254    5.14406508859117
F        13.63254110867500   -3.91070749732286    6.37749807724727
F        11.70150387064170   -5.77244481721352    6.84059568182901
F         9.08013611446343   -5.01141544637986    7.00349944474679
F         8.40807065750912   -2.38224072817204    6.70020073819359
F        10.37619545933302   -0.52849326480563    6.23375324152968
N        14.79118093380894    4.36610514580486    4.25082587686036
N        15.11522082120899    5.57945539971812    4.49421657467694
N        15.55394624296619    5.66773026679345    5.74657632393345

