77
CSD_code = WICZIT | q = 0 | S = 0 | Stoichiometry = C38H34Cl2O2Ti | MND = 12
Ti        8.72652386089596    1.25040122944125    9.58621891178755
Cl        7.72528996543520   -0.37560117988139   10.75572983582032
C        10.94007300646556    1.98879163066276    9.90445055716325
C        10.66154754072672    1.02505179772689   10.91044043579650
H        11.20031698726989    0.09627813084527   11.05733467186676
C         9.66475238658320    1.54729283913456   11.75924706268772
H         9.30529802919940    1.08899277535576   12.67090270754568
C         9.29051710449157    2.81253931779821   11.26707436282349
H         8.62789723545561    3.50763476036409   11.76487847895415
C        10.09497386425989    3.09389064129727   10.13675228384482
H        10.14507893221301    4.04348670609606    9.62232056626719
C        12.06174010452023    1.89997807929315    8.90422309728518
H        12.16247216961688    0.85533183251339    8.58215514039622
C        13.39034985767930    2.31530068377014    9.50432334727350
C        14.54419516026290    2.09687534955560    8.73307116124729
C        15.78501356279504    2.47183525316511    9.22906393007192
H        16.68156941871410    2.31057059595994    8.65146638063795
C        15.88412645229112    3.06096550045495   10.47989970759866
H        16.85599804631031    3.34817978771747   10.85297474696573
C        14.75338521271386    3.27969381065817   11.24046140912256
H        14.83097615352913    3.73877170416576   12.21418189482112
C        13.51183472966898    2.90657406565753   10.74774604842134
H        12.62674897468979    3.07676726377865   11.34323244442476
O        14.33768308602212    1.51134382235383    7.51952674850869
C        15.44113602872843    1.28467244873241    6.68014189092965
H        15.03328486806218    0.83106098195171    5.77813374490193
H        16.16215869830353    0.59794204945674    7.13583165555488
H        15.94531574021583    2.22021385546876    6.41666618455117
C        11.75784353739227    2.73663490673018    7.67939816781593
C        12.01324174105794    4.10289866268785    7.67128906496031
H        12.46396561631549    4.56750822224774    8.53741400261930
C        11.70990210462341    4.86742482943546    6.55796016734519
H        11.91384724067482    5.92873147592967    6.56319648011926
C        11.15060435001593    4.27488422888256    5.43836981690940
H        10.91628786519250    4.87186366248049    4.56905433832471
C        10.90120291930425    2.91259142713251    5.43677300975957
H        10.47489101791980    2.44418615226630    4.56137846500046
C        11.20251157511552    2.14738177893084    6.55060867358289
H        11.01540663801557    1.08322727044828    6.54479308351644
Cl        9.72907675720538   -0.37330228416938    8.41568865951396
C         6.51332249589903    1.98829670388450    9.26631468117366
C         6.79220281945365    1.02407360946919    8.26086206027955
H         6.25358440437319    0.09515771646066    8.11436827434390
C         7.78958498469988    1.54561952665561    7.41232501469287
H         8.14905448879679    1.08699092170192    6.50081879412914
C         8.16321504133837    2.81136537999011    7.90371283739230
H         8.82556266040186    3.50642283677873    7.40547877902221
C         7.35837138832046    3.09332171858306    9.03363140854917
H         7.30809822559748    4.04315513928824    9.54759559220868
C         5.39175829920216    1.89972414311451   10.26666422963637
H         5.29075363765492    0.85514348958707   10.58881156581976
C         4.06336305908087    2.31520151674958    9.66630576046785
C         2.90931720896555    2.09689908219737   10.43727787404552
C         1.66868845279298    2.47215864836946    9.94103394064433
H         0.77195335001399    2.31086230897275   10.51833941120672
C         1.56998480459212    3.06151718786784    8.69027125443863
H         0.59824968531795    3.34891599042665    8.31698490826240
C         2.70094775958758    3.28010937517468    7.92998873575684
H         2.62370009506974    3.73943986102102    6.95636148716024
C         3.94229695366117    2.90662411098438    8.42292431959227
H         4.82758435872092    3.07691440579973    7.82777061263524
O         3.11540615897614    1.51107384073214   11.65075340976613
C         2.01164032480597    1.28415688061371   12.48966564652905
H         2.41914087648469    0.83022157937510   13.39166705800191
H         1.29075363805687    0.59761198732188   12.03347795424840
H         1.50739907368083    2.21962546521564   12.75328827247477
C         5.69575429137688    2.73639217734939   11.49146936270308
C         5.44081915789898    4.10273416969710   11.49936016278748
H         4.99012388377165    4.56732466276616   10.63321645164168
C         5.74434179842251    4.86732675485369   12.61259410869257
H         5.54054388450086    5.92865631623093   12.60726016178473
C         6.30328623441236    4.27476096221045   13.73235321509116
H         6.53776364965564    4.87179514790718   14.60158732161127
C         6.55216807453575    2.91237774049012   13.73419816948890
H         6.97845509249170    2.44399078148671   14.60961252344425
C         6.25071635206914    2.14712191484540   12.62044234103409
H         6.43755479537657    1.08294987930931   12.62643896250981

