48
CSD_code = WIDGOH | q = 0 | S = 0 | Stoichiometry = C17H24Br2N4Pd | MND = 4
Pd        4.27249818894282   14.11945780334132    4.11392750585349
Br        2.88943999117566   15.46287026759449    5.60841996267412
Br        5.80878632184985   12.93622908077414    2.64392518223524
N         6.44696451170013   15.98731483761508    4.70503892513190
N         5.29536849118585   16.58962739304800    2.94598341936536
N         3.02857166841565   12.47873565562074    4.31533501828051
N         1.63829784107030   11.02763688625035    5.18835748013483
C         5.41516203452474   15.66582190523929    3.91114795068276
C         7.02075008993587   17.15588278982089    4.24715525871775
C         8.09401341748543   17.91530622645532    4.68831519873658
H         8.67321600814305   17.63552695382639    5.55281184494566
C         8.40675630728064   19.05887500009352    3.97907654037998
H         9.23713767595182   19.66848317828255    4.30072555359288
C         7.67487026941955   19.44148986784858    2.85951675617801
H         7.94989087476636   20.34145583207297    2.33127370287157
C         6.60349570015676   18.69469493037943    2.40892227634658
H         6.04932858796382   19.00755302839353    1.53934912748859
C         6.27784844090186   17.54438136268999    3.11177848409238
C         4.26019242717964   16.50276524757715    1.92545067150647
H         3.68317335683626   15.57814555175194    2.16757606323062
C         3.31101560341102   17.69377442791589    2.01886700438873
H         2.90114386839061   17.76335052351689    3.02479468767421
H         2.48943061519063   17.56191244989243    1.31997832058511
H         3.82036974804852   18.62448147880644    1.78501990200339
C         4.88311129750476   16.32691367441703    0.54380375767011
H         5.46456635686392   17.19941818969809    0.25914205320698
H         4.09982180111902   16.17451313464964   -0.19372283927813
H         5.53535943065457   15.45557912509265    0.54098811132680
C         6.82748444232266   15.16038389113067    5.84123563697241
H         6.10164258303451   14.31285144888146    5.84526107499988
C         8.22745549869521   14.58731890674420    5.64145055820729
H         8.27469106713513   14.04642520131577    4.69813682974127
H         8.45849182533254   13.89614775054661    6.44743524032511
H         8.97786232216110   15.37289107850419    5.63093726574809
C         6.66574274129051   15.93299753042886    7.14692718686623
H         7.34918399866681   16.77612131525348    7.19410301883520
H         6.86662198485720   15.27511686589588    7.98809068260933
H         5.64625724774192   16.30406697933254    7.23331710796692
C         2.43322928677621   12.08631339776470    5.41964584858698
H         2.54078288309137   12.55032809434487    6.38385371228301
C         2.60841686531009   11.64283870799871    3.32677845671874
H         2.95826202926254   11.73827243430225    2.31496419454219
C         1.74313663346911   10.73416668723399    3.86014949878547
H         1.20631108065156    9.92581692556691    3.40908419389120
C         0.84397563825790   10.32403015994582    6.15431580719315
H         1.29712908510628    9.35913488521963    6.39424235414221
H        -0.15774584048613   10.15209452609087    5.75919860138818
H         0.77118770124087   10.91808641084229    7.06361481015751

