39
CSD_code = WIDHOH | q = -1 | S = 0 | Stoichiometry = C12H21S5W(1-) | MND = 5
W         0.24864761068447    3.59793859990502    2.86176117609354
S         0.08116384788925    5.46110828193560    1.41623130154146
S         0.21063440680811    5.26507387121934    4.52781193383715
S         1.77439359644754    2.65900283743556    1.32533733314993
S         1.33717940066039    2.21169215783225    4.42993879410009
S        -1.98794346784077    2.93820241147517    2.65088223485563
C         2.63395141215126    1.40667923609097    2.19916752359039
C        -0.34888867980015    6.72176387057364    3.74765864064983
C        -0.42350043735118    6.79945606991499    2.40682673367019
C         2.44503220605100    1.21045467072439    3.51442768077982
C         3.60304900781294    0.59983659005164    1.38572257239682
H         4.61605754004647    0.70182458457910    1.77852255525749
H         3.58763331395876    0.94556066071945    0.35553290031013
H         3.33695036879104   -0.45840530357871    1.40892597874059
C        -2.11946981510640    1.08937652598150    2.78762382531479
C         3.18403909022551    0.16892355747557    4.30249853576582
H         2.96099775623664   -0.83019384343351    3.92359430586271
H         2.88587334993170    0.22509884309143    5.34616958873777
H         4.26209535275563    0.32305724352462    4.23316826755001
C        -0.99290039647991    0.46359173552382    1.97609717427868
H        -0.02824678448941    0.69646625249392    2.43114239559880
H        -0.99644555287968    0.85186188078529    0.95667302862877
H        -1.10501446890765   -0.62119135875350    1.94072933826154
C        -3.48082840173422    0.70426611607920    2.21769092110055
H        -3.54605908490037    0.99766389991902    1.17227417336259
H        -4.27361802557656    1.20921270018520    2.76515484673580
H        -3.62999405640787   -0.37283535272359    2.29281223207525
C        -2.01171597883715    0.71856969122134    4.26066152430754
H        -2.02094315687028   -0.36455835592845    4.38294006416424
H        -2.84103006637408    1.14694563443298    4.82057855477624
H        -1.08041564650161    1.11065383297270    4.67268155414946
C        -0.86107672454482    8.03833271614666    1.68259101365284
H        -1.89916958749269    8.27266378002869    1.92329093297854
H        -0.77471405094562    7.88153929682134    0.61074947716320
H        -0.24595708646275    8.89370207107199    1.96744107512926
C        -0.69948092354638    7.86098906888966    4.65839907927613
H        -0.09136265756690    8.73863561607022    4.43252039525899
H        -0.52709135569158    7.56777350146001    5.69056031683413
H        -1.74843185415333    8.13656640789601    4.53931001998919

