40
CSD_code = WIDJOJ | q = -1 | S = 0 | Stoichiometry = C12H21OS4SeW(1-) | MND = 6
W         3.10941185466384    4.76749656989866    3.38444758036190
Se        3.22509476971994    3.54687334251695    5.53530378063608
S         2.46813269820636    5.46956422800666    1.10779070232442
S         5.45354198599353    4.25341189742384    2.93386001734213
S         2.75481298767206    2.48650114476517    2.46200372804623
S         0.71911082814998    5.08705020790890    3.79110971133195
O         3.53425292172505    6.34333675323934    3.71327342575708
C         1.43231000967403    6.75671099781036    1.74311149919748
C         3.64969914249717    5.12490341391692    6.80226648306148
C         3.69272916808454    4.58928848997842    8.22713881386367
H         3.93398617129576    5.39572593378907    8.91893419558765
H         4.44418992601197    3.80765788756499    8.30560801147242
H         2.72881570161026    4.16191314050986    8.49157483311395
C         0.71130596948232    6.59980643719059    2.86725412071833
C         5.45100022525511    2.47947704934908    2.90558740402124
C         4.33499823037033    1.75510714585948    2.71968789661599
C         1.37256779802536    8.01361248672159    0.92220241596367
H         0.34053520694333    8.32467459009029    0.75863961661047
H         1.85194951064856    7.83827449001378   -0.03701375831378
H         1.89816165116518    8.82169999639809    1.43309410360199
C        -0.20861178977368    7.66769896681289    3.39067042109990
H        -1.00093731100175    7.88373718596920    2.67173832688530
H         0.34451308397883    8.58858898132415    3.57811454680519
H        -0.65990750520000    7.32881573778405    4.31911227257757
C         4.36710954589672    0.25402380527150    2.67098220219400
H         5.01016215594972   -0.09289717890060    1.86078896829015
H         3.36024979901901   -0.12082725709071    2.51152617102528
H         4.74984053836154   -0.14603951914850    3.60997698109643
C         2.53938763049958    6.14734882711242    6.62205906005001
H         2.68794570916019    6.98523819423553    7.30403255876380
H         1.56738800508413    5.69647434773706    6.82194165249847
H         2.54558112480776    6.53034429862588    5.59346264759034
C         4.99702389874027    5.67898460149110    6.36801530411876
H         4.94566686606585    6.01921373747210    5.32582126220689
H         5.76681418571690    4.91261110249079    6.44621932326280
H         5.27382333184952    6.52601142123500    6.99620370030646
C         6.79824214711306    1.83796506227529    3.07885324312831
H         6.80762492203526    1.21008858661374    3.97013208772111
H         7.55166903444499    2.61275161748663    3.18315307357040
H         7.04430786995426    1.21448127823879    2.21832161555591

