86
CSD_code = WIDKOK | q = 0 | S = 0 | Stoichiometry = C36H42OS5SiW | MND = 6
W         3.03446810455086    5.28090083055937   21.78336669474272
Si        2.29991080928747    2.54030525396544   23.44059082120525
S         2.74668914385056    3.58454972432032   20.10228067788725
S         4.27720216574493    6.55158217048047   23.41823908270209
S         0.61539733873609    5.40988374166263   21.80217852938747
S         2.75603182899362    7.11318969644010   20.25440269047705
O         2.58351369322414    4.10614542164891   23.10307767872581
S         5.26910893522046    5.33305950308203   20.83814934254836
C         3.83244868375610    1.74768780050606   22.64228023310379
C         0.61804608028835    2.08830945416271   22.68723847544281
C         4.28702737754860    3.34174079804713   19.28413383353772
C         2.34643121569054    2.35030665635392   25.32108880083480
C         2.97765416023199    7.45851826313749   24.38924337833487
C         5.35565573210677    4.08947363867176   19.59123059945490
C         4.96769585568626    2.55352692021931   22.56063376956573
H         4.94718820379549    3.55580271518442   23.00050416199634
C         1.03545525924707    7.37350736734777   19.98867087811641
C         1.53580976301799    1.43232116154116   25.97806409308100
H         0.85679446692817    0.82234028179969   25.40030721489020
C         3.22599518997742    3.11903939059552   26.07877947338056
H         3.87318480142461    3.82613125917211   25.57598102362001
C         0.12150199460833    6.62613768627700   20.63091096035069
C         6.12680756886211    2.09841001395118   21.95831575200398
H         6.99404443735554    2.73987315135245   21.90889428677092
C        -1.79196701312261    2.24190080994173   22.79455714847032
H        -2.68236898890595    2.56124058958106   23.31706940969514
C         0.49403586725460    1.44086838781212   21.46091831627092
H         1.38133774524440    1.13593524974074   20.92646527761037
C        -0.54652157879665    2.48301364673929   23.34400179666814
H        -0.47029590405842    2.99259542122028   24.29450396716063
C         4.31443715418030    2.25785370933070   18.25021395621916
H         4.70991868892591    2.63430980633318   17.30831372547399
H         3.30867185131354    1.88150669021065   18.08964996774072
H         4.94831151359548    1.43716376579631   18.58692314240183
C         2.45651703521276    2.07940608687521   28.09541765329223
H         2.49476409111917    1.97715374405978   29.17028178641502
C         1.58685511657866    1.29702655215632   27.35384615711099
H         0.94752915712643    0.58103375497447   27.85010018693746
C        -0.75092071064098    1.19739877323232   20.90855571472904
H        -0.82611353489669    0.69970457689691   19.95248251613171
C         3.89759078269145    0.46081977536988   22.12066984701475
H         3.03555619520117   -0.18549101517755   22.19592374918963
C         3.27948468098288    2.99057779854366   27.45467353702347
H         3.96427417688039    3.59858681436777   28.02872835832940
C         5.05024852391957    0.00498341392835   21.50477415450956
H         5.08027313979003   -0.99274122012172   21.09065667911842
C         6.68293796790043    3.92933659892045   18.91493776898617
H         6.60083413981593    4.16872042864088   17.85508581600810
H         7.03590486957826    2.90315400293638   19.00766103227729
H         7.40335507965639    4.60145894690092   19.37083594858072
C        -1.35441238788946    6.78354732031770   20.42546650394751
H        -1.67886504729785    7.78000975325075   20.72451303992679
H        -1.88303949916308    6.04495054353910   21.02034051738020
H        -1.60920007930213    6.64372624143928   19.37600338478293
C         0.67194054450419    8.43685946348104   18.99894653635251
H         0.16360022342566    7.99916905435874   18.14047340334173
H         1.57268423681832    8.93718091961147   18.65716587911303
H         0.00486233755266    9.16890286089119   19.45230852243728
C         1.13600880659078    9.12477001201479   24.24004444740600
H         0.56949914740935    9.76669579919344   23.55676937074753
C         2.62400906555897    9.08005871815144   26.23984121015756
H         3.12534491759591    9.69144331190749   26.99762412182930
C         3.67891687134436    8.31168967630742   25.44092174073327
H         4.36669693906597    9.00203832703374   24.94983521845441
H         4.26540404316827    7.66924473746505   26.10002769405293
C         1.82820175129564    9.98260540048383   25.29811625791172
H         1.08385742684401   10.54722836215298   25.86368448268639
H         2.49710938372090   10.69785268455118   24.81514952321557
C         6.16350715537500    0.82391618156923   21.41703752491902
H         7.06246960060971    0.46697092883945   20.93524783614904
C        -1.89706180528296    1.59808554472439   21.57310054744934
H        -2.86908354473515    1.41332911383115   21.13883522119374
C         1.67694993295995    8.09301109633497   26.92151224790554
H         2.23569576176389    7.45477789626860   27.60931527984564
H         0.92864301522073    8.63730165825148   27.50170283939918
C         0.98791914418471    7.23456474706958   25.86074386968022
H         0.31429529748693    6.51977371539795   26.34559727993322
C         0.19143748503026    8.12765442827497   24.91037477823972
H        -0.58241207161767    8.66290081964320   25.46488094636966
H        -0.29936857006603    7.51435688259324   24.15064384841035
C         2.18720306782677    8.35253521229119   23.44169495535593
H         1.68460881885783    7.73565159691510   22.68231378333886
H         2.86559003743256    9.03926211627462   22.92794905129379
C         2.04792347400782    6.46240452697705   25.07197075367533
H         2.62244218518061    5.82455796837231   25.74804720565444
H         1.56640947791568    5.81271237016728   24.32429011118289

