58
CSD_code = WIDLOK | q = 0 | S = 0 | Stoichiometry = C20H30NO4ReSe2 | MND = 8
Re        0.32870285714202   16.62818223737926    0.10314631266873
Se        2.25380882398013   17.99053470206611    0.74564017318352
Se       -0.73873733345168   17.30525549712566    2.19964095394580
O         2.47309919284215   20.59270856854231    3.72052006127167
O         3.86865086541292   19.56194660120028    2.29111085702801
O        -1.10852076847722   19.12370967114650    4.47966598339797
O         0.99785689647284   18.92993794472322    5.25577084711634
N         0.94226651322995   15.05205396469599    0.52337523534554
C         1.74160228816475   18.71193560445245    2.42830430035373
C         2.69090576580200   19.71607121744568    2.92356969425896
C         0.56797964180383   18.39068910581357    3.01705967522072
C         0.06470742695578   18.88085242752007    4.31535719612853
C         4.88803224247996   20.48778405487447    2.62422958499574
H         5.72433630405454   20.26998519378325    1.96526400713490
H         4.53527045914087   21.51082174815884    2.47575960098453
H         5.18090717582817   20.36506300166664    3.66942936613021
C         0.61335905281776   19.45434493324813    6.51941931718059
H         1.22555327055047   18.95494383558865    7.26737303514318
H         0.80595786060429   20.52858449987797    6.53170532441318
H        -0.44788729577966   19.26820316245520    6.69621980981661
C         0.32491811607707   17.44627969418229   -2.09495941450922
C        -0.15198334890397   18.69645985406096   -1.53123999241523
C        -1.37267168806912   18.45683072778486   -0.90695787471100
C        -1.69613885234281   17.05311647854865   -1.06586961927321
C        -0.70095155459600   16.45932619069984   -1.90568421189042
C         1.47270233684349   17.36779400550602   -3.05227165305291
H         1.20503651215755   17.84381293323173   -3.99817558130509
H         2.34325201465072   17.88422115714142   -2.64573150473108
H         1.75005617004442   16.33482593163182   -3.25210850225685
C         0.56276984822694   19.99446433740412   -1.69800172902039
H         0.61309373820942   20.25956991784504   -2.75565347051752
H         0.05936729171205   20.79520071326269   -1.16115468354336
H         1.58816016804482   19.92468201520543   -1.32379242545827
C        -2.27518636385270   19.43327857451214   -0.23281097288407
H        -3.24289288835732   19.45746242443628   -0.73639942552962
H        -2.45125920832097   19.14842260762585    0.80920674376752
H        -1.85200126085462   20.43499320747157   -0.24193413855187
C        -3.02598133134386   16.47359193281909   -0.70437714258974
H        -3.79766485552938   16.85899231585651   -1.37441609335696
H        -3.01749586794416   15.38782150539597   -0.77677328101613
H        -3.29620613059574   16.74921707774331    0.31700475619641
C        -0.82365838040900   15.15582195239249   -2.64216570457725
H        -1.35084539442161   15.32054058334416   -3.58465958729843
H         0.15533575286218   14.73598107911323   -2.86786249221133
H        -1.38390881290964   14.42453106684138   -2.06157422830834
C         1.62136442813277   14.00389309954122    1.16571320952122
C         0.83695622220415   12.69149737426162    1.02060083395367
H         0.74741536792289   12.42462782944149   -0.02949493124809
H         1.35035111832635   11.89234384950772    1.54709469043208
H        -0.15952158216143   12.81289013499716    1.43742731843841
C         3.02220718687632   13.88174414322154    0.54227117100858
H         3.51432727279648   14.85145392337306    0.58358867911650
H         3.61131775710694   13.15016213567158    1.08697955834201
H         2.94291820131912   13.57587676856010   -0.49762711793140
C         1.73249206762120   14.40808983303005    2.64898577781917
H         2.26300001996476   15.35607977591973    2.71978352949639
H         0.73619668025177   14.53793134198888    3.06585693468908
H         2.26657800982278   13.64586353457085    3.20792123972619

