119
CSD_code = WIDMED | q = 0 | S = 0 | Stoichiometry = C61H49NOP4RuS2 | MND = 6
Ru        6.62073233129905    5.38778425998202    9.69007159808602
S         5.45443932388453    3.77011329421821   11.32867199816868
S         8.91451800076541    4.36266334431670    9.90960381687422
P         8.20458183563253    2.53169001210091    9.52031444437960
P         6.84503109888007    2.46736059455863   11.93707813626372
P         7.59878316714379    6.42427230155646    7.86395731333113
P         6.85516468146443    7.04875325731983   11.43829803840051
O         3.85309723392489    6.41969669906220    9.28297653794134
N         7.71305996279894    1.67678624065596   10.81605850755166
C         9.48343176494737    1.49084411463308    8.78917241400200
C        10.43944820761644    2.05755905133804    7.96008052984257
H        10.43118239196434    3.12533434678473    7.79508318642211
C        11.39650111176307    1.25308680335333    7.36971670684751
H        12.14282421413888    1.69188331845398    6.72367542591881
C        11.39700342397588   -0.11136168766752    7.60963158709327
H        12.14465392733460   -0.73973578173659    7.14742758537392
C        10.44561695218318   -0.67381250862120    8.44659907472576
H        10.45388320293191   -1.73756918022591    8.63638753410176
C         9.48549936724146    0.12527504707034    9.03897227390486
H         8.73819681546544   -0.28894312476111    9.70012672702084
C         6.03568145935682    1.16997040908092   12.90065058255490
C         6.75870005820042    0.01268188483140   13.15642817090106
H         7.75700017767482   -0.08246779605692   12.75388357923747
C         6.18824883279048   -0.99759338359796   13.90708541811805
H         6.74342576718789   -1.90289011915600   14.10627710281091
C         4.90283164049942   -0.84802956750203   14.40462093802936
H         4.45794327510194   -1.63902081998145   14.99087194843596
C         4.18607348637481    0.30965784514411   14.15036395896021
H         3.18346073638140    0.42099748741831   14.53695382350079
C         4.75134727356176    1.32443791415489   13.39843895102374
H         4.20283758058225    2.23009940724115   13.18091645173577
C         8.06210762797937    4.44960246543859    5.93694001933948
H         6.99346577609561    4.29977542480613    5.96726781385578
C         8.65057415441943    5.42094304728745    6.74722000230251
C        10.03088816008407    5.59558374457108    6.68840680785673
H        10.51462992297967    6.32761315721193    7.31762792532677
C        10.79802986498231    4.82780921642517    5.82880527364617
H        11.86734220572508    4.98004817470095    5.79253140204765
C        10.20551242622227    3.86658121839911    5.02755032455103
H        10.80716542471671    3.26567141896616    4.36162621614569
C         8.83532584223916    3.67695613459579    5.08990001589142
H         8.36139042361994    2.92551404492463    4.47511556705671
C         9.66960865097257    7.68006995531930    9.20047343504911
H         9.68843432203929    6.76388744031668    9.77527226821848
C         8.73763101379956    7.82164078336915    8.17388790834446
C         8.72788729078891    8.98941642552585    7.41846559477283
H         8.01939380432464    9.10987186755542    6.61221736430833
C         9.62473255105287   10.00415087852960    7.70499548435046
H         9.60932925708521   10.91074464866729    7.11727129435446
C        10.53870160470296    9.86424548973049    8.73659898189352
H        11.23117477418452   10.66313119881435    8.95817554574693
C        10.56504269929098    8.69561700188694    9.48143781675872
H        11.27581555380095    8.57612440783522   10.28628427017267
C        10.60358318766928    7.02859320660017   13.03985825091080
H        11.39362297518835    6.30028306864305   13.14709441687558
C         9.42812557319375    6.67385457401375   12.40212955748540
H         9.30796521990218    5.67178819142357   12.01649852599737
C         8.40401266635983    7.59927617484684   12.24217872060692
C         8.56031450778195    8.88135263200728   12.76704331769978
H         7.75878259565346    9.60196283855447   12.68768759448783
C         9.73644978885982    9.23258304254552   13.40204637365960
H         9.85028267425949   10.23029264018608   13.80150026536110
C        10.76370607543319    8.31103396900802   13.53397717846293
H        11.68270805989847    8.59379450777564   14.02694012513603
C         6.16633226791071    8.65332884265167   10.86939487656233
C         4.80632772188398    8.93884073325941   10.95593070065267
H         4.13528599231154    8.25123152446590   11.44757326443038
C         4.29968461367329   10.10997890734484   10.42018696531044
H         3.24160627592675   10.31441806585991   10.49600193875785
C         5.13826710372334   11.01367941772516    9.79043346719408
H         4.73885473787029   11.92439474779711    9.36895425662473
C         6.49458925998155   10.74554163916648    9.71255553775963
H         7.16266118383135   11.44590666581039    9.23269215834470
C         7.00445523510324    9.57692794170187   10.24637747391212
H         8.06407714145798    9.38401886100758   10.18988969167228
C         5.81955983545287    6.79272698581460   12.93271195041384
C         4.52793482021282    6.29087839690643   12.77534705183260
H         4.16770501385052    6.01956192604410   11.79315795875005
C         3.70747716678291    6.09809414957108   13.87156010788457
H         2.71269260484487    5.70198367881588   13.72933870011139
C         4.16168362609301    6.40250676877550   15.14356652906065
H         3.52310963102900    6.24832090767265   16.00117520100244
C         5.44274601796388    6.89903603505646   15.30919775261986
H         5.80580245102433    7.13903020548768   16.29872054420278
C         6.26911296621122    7.09020536296754   14.21534005160196
H         7.26944633202622    7.46435429192370   14.37217119258257
C         9.33884350544145    3.06379470960589   13.06804415947419
H         9.75192014751745    2.48202898241718   12.25394733850800
C         7.96685911362793    3.25122386814693   13.14644058245123
C         7.41327141759096    3.99280532045517   14.18174581827951
H         6.34017925131256    4.12385261233410   14.22655120436062
C         8.24052120870295    4.55645391456897   15.13436358492107
H         7.81393661305364    5.13210105338595   15.94238520899132
C         9.61257850746217    4.37947201322400   15.05359816078576
H        10.25638316072521    4.82456362677309   15.79852841285640
C         6.42025003213473    7.21218429912482    6.71383527852631
C         5.52069357725464    8.09806429181090    7.30444445735780
H         5.57322480556762    8.25983355631015    8.37276697616642
C         4.58859352429718    8.77132829129218    6.54038225679948
H         3.89750441990488    9.45198048091171    7.01497243279302
C         4.54386784868099    8.56725187820418    5.16992633191640
H         3.80982187791999    9.08261345962159    4.56823950061814
C         5.44970888774626    7.70770176695414    4.57288506726832
H         5.42812557028228    7.55861193596234    3.50295379791112
C         6.39141058785288    7.03631083323251    5.33552782484945
H         7.10265261522628    6.38496386807568    4.84978113026936
C         6.14633739075191    3.91525245297730    8.30745680627423
C         6.85574718391260    2.71062749125812    8.32599983266445
C         6.53298633729484    1.61890616654642    7.52755090759801
H         7.12009565048489    0.71236554913454    7.60174981796330
C         5.46672665494001    1.71154012745083    6.65789461130363
H         5.19877909989071    0.87401768303980    6.02999402050240
C         4.74369815919111    2.89386289170083    6.60197728753988
H         3.90828319981093    2.98071664868909    5.92069745139531
C         5.07908717563318    3.97051564171048    7.40641243567293
H         4.49776326720478    4.87977341950928    7.30954463450438
C         4.93614952737925    6.05707388356507    9.42989665470792
C        10.16094634404405    3.63333611253928   14.02319351322516
H        11.23060535962319    3.49206845919480   13.96381511003311

