63
CSD_code = WIDNAA | q = 1 | S = 0 | Stoichiometry = C23H32N2O5Ta(1+) | MND = 11
C         1.75531925326781    4.02035053349709    2.18976831703525
C         2.95383358798715    3.64387022102892    3.04856498590194
C         4.25665491613097    4.10432228419353    2.95541897338214
H         4.53605235299258    4.77894154545671    2.16214241870236
C         5.17181700894302    3.67815880497171    3.91934886108609
H         6.19771419733276    4.00935491925309    3.86957428786033
C         4.75638137001969    2.85651252767237    4.95931523883553
H         5.42314930649002    2.54241390257121    5.74654689696730
C         3.42722496397991    2.44824728953579    4.97310782037173
C         2.69940319957732    1.65138781328005    6.04393314159410
C        -1.44044789465661    1.49740329618888    4.64316140828665
C        -2.53814537688220    0.54605891945497    4.95248360822280
H        -2.83729424898992    0.69534939752685    5.99105835414395
H        -2.20549603166401   -0.48320202397181    4.84671089780228
H        -3.41089769258090    0.71332747932585    4.32115782083746
C        -2.54474506027444    3.75646953965833    4.51003332466992
C        -3.57199985330688    3.52536463626840    5.62163215173157
H        -4.22433778066509    2.68638181193311    5.40212068256804
H        -4.19191417959803    4.41248670132773    5.72023700115244
H        -3.07387572938987    3.35044247667637    6.57281529494117
C        -3.19739607879818    3.71117816774017    3.12234178532865
H        -2.44419342363557    3.87544284769125    2.35438580492472
H        -3.95054836289438    4.49081032356082    3.04969484368062
H        -3.67758044611276    2.75261925038229    2.94299540531538
C        -1.85269981755046    5.10840402636839    4.70737786114742
H        -1.44955638335894    5.17671269368967    5.71548222540909
H        -2.56372150802901    5.91739967828099    4.56499634779668
H        -1.04933096269066    5.22106963468571    3.98036828028875
C         1.40873677462385    1.42745110406092    0.58179161777600
C         2.66316952426204    1.11280772514670    1.25077034127304
C         2.39470327852748    0.53308642210278    2.45490617054575
C         0.92505424495449    0.49517291929716    2.64882221035819
C         0.37781350126618    1.04174591660551    1.37817142256496
C         1.33782322668327    2.06284599177582   -0.76060390752745
H         2.04974224786620    1.60097427504963   -1.44093779544267
H         1.58635864053895    3.12231701958438   -0.68154743162529
H         0.34101193399395    1.97350054065521   -1.18091945550043
C         3.98867399902690    1.39399239161574    0.63906961161821
H         4.15700750589253    0.73373032338582   -0.21144067549490
H         4.79747634002539    1.24482620041208    1.34962320654031
H         4.01881352202175    2.41861340307645    0.26995850580445
C         3.35227282974791   -0.16811504717297    3.36149382025984
H         3.01555238359826   -0.15943016401252    4.39727264749886
H         4.34640753398957    0.27180370319505    3.31076013373320
H         3.44240337763601   -1.21264462251497    3.05809549407241
C         0.35706153576495   -0.81635969938359    3.13970986886610
H         0.72442874695957   -1.61723985454317    2.49715220815676
H        -0.72702442953591   -0.81912865928385    3.08447820399563
H         0.67115260362093   -1.03069342379679    4.15891802741822
C        -1.08165142343292    1.11503656232009    1.06701645221224
H        -1.32122045791031    2.05428248180883    0.57297682633978
H        -1.67940011741570    1.03239302877150    1.97314326009403
H        -1.36240326156787    0.30465205662661    0.39290534894128
O         0.64612395119705    3.58180609434195    2.71753422636122
O         1.85529758509097    4.66418263851343    1.17837146766816
O         1.43134577140065    1.52007496268686    5.74205164464902
O         3.23680881384698    1.25178902782439    7.04233325487375
O         1.21382210693061    4.45064592070575    5.95479597717405
Ta        0.51918477890852    2.31435152126231    4.21987547748104
N         2.58516668853197    2.80834094108337    4.01321685596708
N        -1.47854702145539    2.75146025015857    4.50934081991415
H         1.07100017609879    5.39571278041214    5.83293207085778
H         1.36506376261040    4.31243656997113    6.89618805263540

