94
CSD_code = WIDPEG | q = 1 | S = 0 | Stoichiometry = C44H42ClN4NiP2(1+) | MND = 4
Ni        2.42207320650931   16.59359667772620    8.68829250118749
Cl        1.73395006806289   18.47319532441649    8.13728489683789
N         3.76153000193452   15.68197422744298    6.37271700747311
N         1.75548015654899   16.25280463545011    5.81424089924409
N         3.37733917666051   14.87210490892269    8.98923518818075
N         2.17377374123304   16.98359287841370   10.65022774558792
P         2.94318289442078   14.13307805846807   10.33991572307919
P         3.48931548406583   16.74881934241064   11.52733043508806
C         2.59404599129591   16.16426795247929    6.86067758310242
C         2.39254649533461   15.84735022349943    4.67569541294949
H         1.91855370442781   15.84010452565112    3.71702341985070
C         3.65048224406416   15.48941334392685    5.01996731671218
H         4.44472915148203   15.09341849523764    4.42299205547261
C         4.87107616346930   15.28379745490173    7.14483885547354
C         4.65621118160354   14.81331479751551    8.45522200848344
C         5.75572306144438   14.30667444881724    9.14625131046468
H         5.59984791561421   13.90957136286054   10.14181720737251
C         7.01983366182919   14.30923469624050    8.59348306474781
H         7.84870965966885   13.91372227132475    9.15950951263838
C         7.22484284371607   14.82938764154754    7.32709646649454
H         8.21411357095653   14.85455824330848    6.90040999639303
C         6.14738785192304   15.30830833604475    6.60491876626139
H         6.29863456528092   15.71212937424126    5.61608158790218
C         0.35985475526166   16.66551690871319    5.85413742987429
H         0.13503139128099   16.89240529983293    6.90289356986988
C         0.16736978459647   17.93402833882210    5.03111844088105
H         0.79786506678595   18.72409444097475    5.42971858130474
H        -0.86735556287472   18.25563485129152    5.09649672953394
H         0.41299582798681   17.76936806933961    3.98523362885581
C        -0.53055064407653   15.52163759261452    5.37475866444644
H        -0.37542691068754   15.31731576947958    4.31848864290839
H        -1.57261499248000   15.79281185161155    5.51561083498913
H        -0.32973497089275   14.61265671693091    5.93851428583077
C         3.55253069116142   14.93303826404854   11.88816509088002
H         2.87920216067579   14.71742200958637   12.72197285606052
H         4.56417857649473   14.60545608235680   12.13850322337819
C         1.14102499533843   14.11067412602053   10.42764676027986
C         0.34016027470368   14.65357286190701    9.43179106155678
H         0.79829559370872   15.16485080949953    8.57605715528458
C        -1.03737326828703   14.56900956432037    9.53474182625492
H        -1.66115459268081   15.00117632231720    8.76690689416960
C        -1.61448606177770   13.93834447701828   10.62624382469519
H        -2.68877033806185   13.87898251369645   10.70785420931529
C        -0.81552452021064   13.38320116167563   11.61426468602253
H        -1.26667072860275   12.88842973382711   12.46074392175462
C         0.56129223756046   13.46070412571810   11.51368070402249
H         1.18900938422257   13.01228167042246   12.27339199112514
C         3.44287303533273   12.39314799178575   10.38838001094770
C         3.33336682060551   11.69802198817310    9.18832986860984
H         2.99303705904601   12.22283356836130    8.30513477262479
C         3.66261769750675   10.35721051833350    9.13592167016764
H         3.58243652967839    9.81719286258603    8.20515541038741
C         4.09325945161216    9.70799775321118   10.28286633195548
H         4.35014723342836    8.66083022664268   10.24427528249899
C         4.19369860957284   10.39809135608368   11.48006644613013
H         4.52591658487699    9.88852168783038   12.37167732000802
C         3.86890355981838   11.74210605474484   11.53873444345320
H         3.94943189498274   12.27473515366326   12.47608149228537
C         3.41934886312107   17.51933433808735   13.16017420074023
C         2.29158683012072   17.24844312299892   13.92940496948910
H         1.52391194076178   16.58888750349440   13.54438933887752
C         2.14542935325565   17.84682717601749   15.16594415730080
H         1.26940367277318   17.64351750631163   15.76248028310724
C         3.12163495616793   18.71340994369073   15.63360199084727
H         3.00622800358884   19.18167790584918   16.59881618841646
C         4.23914900174938   18.98863094679750   14.86257857276296
H         4.99236683108921   19.67109329903984   15.22543413444218
C         4.39036806359555   18.39814653899269   13.62018662425631
H         5.25229413888202   18.62494810848308   13.00865046060437
C         5.09199775371269   17.10783586188808   10.74846702727378
C         5.11394528971046   17.72260832070373    9.50213842752312
H         4.17616002456649   18.01177944055130    9.01623860723871
C         6.32316924333187   17.97463860115066    8.87870591785796
H         6.33879238538769   18.45277075249113    7.91147287453824
C         7.50795207469864   17.61802547737509    9.50085447249709
H         8.45151358281274   17.81455296718946    9.01587380058900
C         7.48869268132972   17.01404075919157   10.74932331079597
H         8.41475486865573   16.74529860934505   11.23451342036543
C         6.28462355468947   16.75602308363055   11.37599111002618
H         6.26670689584725   16.29300711596109   12.35422306546538
C         1.31912959152935   18.05388884051943   11.03364571012357
C        -0.05268829738998   17.84237528414065   11.09027083121069
H        -0.45247751606531   16.87482398452603   10.82388443086877
C        -0.89540261630166   18.86589405990570   11.47934575943604
H        -1.95993424862928   18.68560565647493   11.51698773096045
C        -0.39865476633940   20.11540549290799   11.82631841510293
C         0.97479383723549   20.32096492946369   11.75849800516210
H         1.38391639857385   21.28820310347832   12.01057469911087
C         1.82219520555798   19.30736833164904   11.36390841924873
H         2.89088318844679   19.47985828346853   11.27926129018348
C        -1.31220506794034   21.22718436728607   12.23828517602841
H        -0.90683454379878   21.76222310190800   13.09482988153065
H        -2.29863633981143   20.84830049495458   12.49268488941005
H        -1.42073425207270   21.94088474579534   11.42165478325141

