60
CSD_code = WIDPIK | q = 1 | S = 0 | Stoichiometry = C28H25ClN4NiP(1+) | MND = 4
Ni        4.62828245103219    3.14691758618102    4.96477349987727
Cl        4.65997841726668    4.86518233390839    6.06410666866249
N         2.55499720862860    3.45563301580025    3.03799767325268
N         3.79243544584863    5.22685133502611    3.03447081705491
N         4.31146159196848    1.47290760207108    3.96885076290356
N         5.72827475704843    2.25625272891978    6.34127412987676
P         5.49233934637177    0.37935579265713    4.01346250551214
C         3.65259395212396    4.01557431417805    3.60712968025997
C         2.01580177031974    4.32436482131644    2.12613948635192
H         1.15944068730379    4.08837986130075    1.53103044289119
C         2.79402480726250    5.43162934794570    2.12841057143538
H         2.71322466579901    6.33454272914389    1.55907325640394
C         2.10486838017884    2.12958016935142    3.21112280736576
C         3.01902374639361    1.12895495201597    3.58764223962739
C         2.58231625147049   -0.19507102679594    3.56089272838064
H         3.29653561849099   -0.97401279601927    3.80360959081338
C         1.27655502103422   -0.51863076865287    3.25592754898425
H         0.96894422476240   -1.55239231505313    3.25321702490917
C         0.36286417602864    0.48412115830483    2.97508904336573
H        -0.66702368379626    0.24257185788572    2.76981927678392
C         0.78253778340986    1.80047046704478    2.94334656558869
H         0.07317121349924    2.58056028323956    2.71729025258788
C         6.96471066522457    1.39052457218536    4.45770967090718
H         7.89432695722467    0.87992641316853    4.20393721813137
H         6.89238711747449    2.34190013842520    3.91319458172771
C         6.81779000261117    1.59309315129984    5.93615535583337
C         7.71031041503507    1.03325366337560    6.83978746197244
H         8.58974427775714    0.52244425067650    6.48009761829851
C         7.45836612450329    1.14341557014605    8.19663216542227
H         8.14129630180920    0.71891723506309    8.91552825886707
C         6.31092086052419    1.80299070776465    8.60611764401592
H         6.06499849280880    1.90212821711389    9.65030171700715
C         5.48140232167166    2.35516295731761    7.64699814326521
H         4.59357853374553    2.90390361771393    7.93375233677707
C         5.46387158065018   -0.86646922108209    5.33843970774496
C         4.48807063213837   -0.79027924602021    6.32545389674653
H         3.70120671043634   -0.05108141632373    6.24711424725607
C         4.52966438218860   -1.66301771888441    7.39792325761600
H         3.77171829318565   -1.60924894617240    8.16406579825634
C         5.54297195124384   -2.60438375683542    7.48479967634953
H         5.57264914703227   -3.28599364692248    8.32058309474400
C         6.51990083773992   -2.67546766796889    6.50301431726257
H         7.30789046676322   -3.40923938547335    6.57583451079876
C         6.48813256386927   -1.80390161073782    5.43018552130141
H         7.24915507458951   -1.84745313993731    4.66277610735917
C         5.76795476780629   -0.39606812774518    2.40279035934872
C         5.63374575135223   -1.76087955457401    2.18411713585240
H         5.39042534566065   -2.42373483081896    3.00265278740969
C         5.81573807815543   -2.26374925247139    0.90766011373810
H         5.71495557689373   -3.32345760318332    0.73091699005770
C         6.12292482551332   -1.41070765459763   -0.14034760874359
H         6.26455245413792   -1.80949637415305   -1.13276919150422
C         6.24367239935430   -0.04634766578928    0.07834062114757
H         6.47735540988450    0.61517422177304   -0.74161185890617
C         6.06237494053992    0.46461755453501    1.34930627989156
H         6.14038830964518    1.52796608445902    1.53602031043180
C         4.82979573483238    6.19500246388961    3.27913105162408
H         4.49058411599614    6.93928778620598    4.00084670240334
H         5.08934858391101    6.68982259725051    2.34423788862701
H         5.70697216364391    5.69730216755859    3.69142953807099

