91
CSD_code = WIDQUV | q = 0 | S = 0 | Stoichiometry = C28H48N14Ni | MND = 6
Ni       -1.56180317750561   10.20416260117747    0.00143226493984
N        -1.83494927921381   10.62643967099804    1.91300084628241
N        -1.27359143824776    7.96160832852987    0.41800381666239
N        -2.95957672479079   11.28305731966140    2.18280777064147
H        -3.68384504713433   11.29067967528876    1.47365189668273
N        -0.11086247434623    7.69521732989935    1.01343350688468
H         0.51650887635664    8.47153479069854    1.18793919012405
N         0.30280934215510   10.37228234863455    0.21568005913605
N         0.91452071876343   11.29777093309861    0.58717664453621
N         1.63487340712009   12.10514696803643    0.93900181170073
C        -1.09385411938866   10.70790876216792    3.00479977916138
H        -0.12065381084473   10.26257405567271    3.07048168612020
C        -1.76362021665084   11.43625930452790    3.99050017506576
H        -1.40165427972744   11.66382721882417    4.97089031605216
C        -2.97171607950695   11.79672948091590    3.42446152657614
C        -4.13502857467822   12.59323347234449    3.93759498475389
C        -1.88570554304378    6.79800694114753    0.29239936964519
H        -2.85450050531962    6.72186799231859   -0.16182902142033
C        -1.09712993049687    5.76842232907364    0.81977911400960
H        -1.34343847163340    4.72790191100861    0.85367342401555
C         0.04922612473481    6.38481269812010    1.28190161369713
C         1.28568096607160    5.85796571835687    1.94976091472999
C        -4.44415285626938   13.71839014990536    2.94028782772737
H        -4.77658837381425   13.31670300287440    1.98614025753701
H        -3.55850373672510   14.32594546968322    2.76688366521890
H        -5.23141157642635   14.35786172697809    3.33283556506847
C        -5.35295050513751   11.66924915099820    4.07455187710263
H        -5.62096469372365   11.22848875923748    3.11708704845358
H        -6.20743415734164   12.23048269119792    4.44515662787917
H        -5.14016590945074   10.86357810797669    4.77357191088341
C        -3.79289351364221   13.19680266391796    5.30079176364339
H        -3.58342496132388   12.41347652174970    6.02472302939622
H        -4.62921137583889   13.78711432185148    5.66759847586246
H        -2.92198872171752   13.84286635743571    5.22350266116450
C         1.14160318216211    4.35644173477863    2.20341078542206
H         2.03348396549300    3.97315840551839    2.69379248002577
H         1.00801037041826    3.82120108333440    1.26662337972990
H         0.28495108607247    4.15858744826686    2.84284103312615
C         2.49550001712177    6.10822312536844    1.03838310823489
H         3.39856017419997    5.71697196662683    1.50109416463253
H         2.63910751813876    7.17204244289703    0.86076618455451
H         2.35682086086760    5.61117355505491    0.08045305138059
C         1.48567052676610    6.58539415426785    3.28631695066029
H         2.34305251882702    6.17145900335642    3.81202906680625
H         0.60613514494338    6.46968279771553    3.91591879871757
H         1.66260725193748    7.64771022292106    3.13446582263105
N        -1.29090576700842    9.77630925661667   -1.91126236229336
N        -0.15019231275541    9.14877099643898   -2.18245428066340
H         0.57954867203551    9.17349974791790   -1.47870665469940
C        -0.13498353001570    8.61606379769166   -3.41596658383214
C        -1.35859687791818    8.93198613484050   -3.97528974252265
C        -2.03985600247758    9.65592365239211   -2.99421857898592
H        -3.02670567049620   10.07062326409866   -3.05695284827412
H        -1.72311023272041    8.67848234000333   -4.94836134143456
C         1.04506090212814    7.84269630996534   -3.92622407529153
C         1.37165375102980    6.72399790637414   -2.92716771743288
H         1.68772881536155    7.13299131041214   -1.97064823939670
H         0.49809409866685    6.09736864438613   -2.76030838816377
H         2.17550966988540    6.10192845064007   -3.31398693594375
C         2.24586896251487    8.78924886161334   -4.05941418288351
H         2.50453559775787    9.23312827344123   -3.10084290918974
H         3.11117117246316    8.24454681862952   -4.42957561347130
H         2.01944403818534    9.59208093390411   -4.75743052589505
C         0.71908787122985    7.23236574549929   -5.29029963138355
H         0.49428429639055    8.01129517254865   -6.01441958103395
H         1.56880526617681    6.66033612739172   -5.65527985593846
H        -0.13770426385073    6.56744566372316   -5.21526599751704
N        -1.84018396020457   12.44719295077345   -0.42178031966379
N        -2.99467839686078   12.71563598337439   -1.03208546673623
H        -3.61861650666782   11.94015344226771   -1.22082491453032
C        -3.15369233664020   14.02773490371987   -1.29284634176774
C        -2.01533255425466   14.64295263282621   -0.80986400040525
C        -1.23234691261578   13.61104148729333   -0.27876112931416
H        -0.27045246743848   13.68582615104252    0.19012389068870
H        -1.77074802285650   15.68416664843175   -0.83253394361548
C        -4.38261166581977   14.55762317019356   -1.97201565154489
C        -4.24011475749605   16.06214147967153   -2.20826238473012
H        -5.12577347931900   16.44730310893234   -2.70831394721441
H        -4.12268569352260   16.58832439935984   -1.26421979080573
H        -3.37459124499849   16.26941331647796   -2.83254565755724
C        -5.60333076104815   14.29404121826059   -1.07906622816328
H        -6.50179960799847   14.68618389122741   -1.54985765244267
H        -5.74501123111367   13.22809624829002   -0.91311977185811
H        -5.47921053275689   14.78269507408868   -0.11479442346840
C        -4.56254059652834   13.84355956642952   -3.31852320710430
H        -5.41588831636992   14.25847238909519   -3.85000902419900
H        -3.67622602648275   13.97093730986414   -3.93622111957912
H        -4.73498170574433   12.77868820820801   -3.18026719066682
N        -3.42510334053917   10.04352741414287   -0.21300272978673
N        -4.04274224696159    9.11030181186181   -0.55375566872473
N        -4.76957809055174    8.29768307124672   -0.87914450637820

