31
CSD_code = WIDQAB | q = 1 | S = 0 | Stoichiometry = C6H16CoN4O4(1+) | MND = 6
Co       -0.39715196857459    4.90291152733139   12.98428909768581
O         0.13412873314700    2.60493573536355   12.07688527017100
O        -1.34057305997280    0.97688475362029   11.42791282551792
O        -2.08987674019758    4.24850555178413   13.57321914304342
O        -4.13893166550022    3.99652456870254   14.58094011261002
C        -0.59948865175128    1.78250519596318   11.75124479596946
C        -3.11721720998504    4.12978382554867   14.07975178831841
N        -1.17629410248265    5.58968366769332   11.24919141277753
H        -1.59393808958727    6.48782347952335   11.49429102096087
H        -1.91199498109516    5.03248934677292   10.81991985655451
N         1.31741065332838    5.49996712932204   12.20330387091395
H         1.73534089449758    4.63765894899824   11.85228242523345
H         1.99476903876292    5.92021397053656   12.83540117049503
N        -0.75652199051427    6.77749884746210   14.56795128276359
H        -1.66823455044382    7.21906552383271   14.61165341309744
H        -0.08308797251766    7.50818294378998   14.35909735787251
N         0.49993225476889    4.22839845151692   14.69821584532688
H         1.35221034830375    3.70923158807952   14.49718593528717
H        -0.14592256583072    3.55993320213516   15.11679834383999
C        -0.09405040882272    5.82068390016645   10.28384190758902
H        -0.39313233996589    6.49416434370744    9.47305373661479
H         0.19447370530716    4.86047762599235    9.84996907889363
C         1.07866069506626    6.39766098506256   11.06602471200286
H         1.96159459596506    6.50127329334505   10.42545764840411
H         0.80975484805764    7.38377124288960   11.45187831622098
C        -0.42951142936725    6.17701583746665   15.85951905910923
H        -1.28332284299618    5.57919396057032   16.18863243556169
H        -0.21629858536033    6.92094725699390   16.63781378163562
C         0.78787995358995    5.26836160346824   15.69325660243469
H         1.63174067433106    5.86547781929505   15.34133914646817
H         1.05315275980733    4.83547387306196   16.66437860677080

