49
CSD_code = WIDSIM | q = 0 | S = 0 | Stoichiometry = C10H28N6NiO4 | MND = 6
Ni       -0.16848618244122    0.45874365100246    5.19019619855417
N        -0.16838108856220    2.18050387575242    5.19082525643318
N         0.13502786959352    0.61492954175274    7.47462468032290
N        -0.16798690695581   -1.27818852033384    5.19001932192879
N         1.93657453298395    0.24710662428177    4.32388530829241
O        -0.80325763230488   -1.86600357512697    4.31927116635188
O         0.90510389046174    2.76087591861554    5.09522643005424
C         1.87244695975378   -0.07363324344028    2.89933307553487
C        -1.15106904024337    0.79260279851474    8.14740230633798
C         1.19442280837824    1.47413201805533    8.00061593830037
C         1.65079720106266    1.13769909319582    9.42634732757258
C         2.21557934508803   -0.27431277095555    9.54120053350058
H         1.59928119052973   -1.12783783805724    2.79339637938072
H         2.83462352427780    0.08556917182575    2.39144679978624
H        -1.43531195350250    1.84632851969280    8.06054228403397
H        -1.10829746927394    0.52975855783234    9.21307794234974
H         0.43467811110201   -0.35621806145905    7.60152371641297
H         0.84767400933573    2.51071859292662    7.96597866536945
H         2.05118786588440    1.38605222756581    7.32763268149361
H         2.42203240701351    1.85758636354024    9.70625998202529
H         0.82260818569416    1.26149590878657   10.12670835016764
H         2.53743393800119   -0.41101767579258    4.81216190866447
H         2.31784153679864    1.18596944575344    4.44659899024681
H         3.02329370256885   -0.41966028169446    8.82725098304760
H         2.60747892009958   -0.44411966236342   10.54132403755044
H         1.45324460599515   -1.02693600530488    9.35107239010122
N        -0.47951330744045    0.61640464748882    2.90627633326272
N        -2.27667046604712    0.24635443192612    6.04934158397426
O         0.46861385321313   -1.86544546271348    6.06017179582276
O        -1.24110488112618    2.76165844964224    5.28780606516339
C        -2.21703023850432   -0.07532340908481    7.47384263357741
C         0.80449001405429    0.79491817012590    2.22978708193426
C        -1.54099549343130    1.47476536153617    2.38323963588849
C        -2.00354778538977    1.13635078858736    0.95993998976606
C        -2.57085679290883   -0.27504455715863    0.85005908626860
H        -1.94445077906522   -1.12966578576214    7.57992755703383
H        -3.18076785466512    0.08373833250407    7.97882063904307
H         1.08892623190347    1.84859130485845    2.31689262796963
H         0.75849925144121    0.53324217216277    1.16394129638460
H        -0.77862451492358   -0.35509036100212    2.78072796334875
H        -1.19398653394553    2.51135054670116    2.41497063397141
H        -2.39504024014996    1.38779473107080    3.05977353829798
H        -2.77499856275953    1.85677040622620    0.68195214158835
H        -1.17816381590280    1.25774745965925    0.25585032763586
H        -2.87605517159064   -0.41140826543125    5.55879382964173
H        -2.65717279970158    1.18544370765088    5.92611757686174
H        -3.37649121751412   -0.41747626174117    1.56694157779231
H        -2.96629626320888   -0.44650318988081   -0.14839286626149
H        -1.80910296367773   -1.02841789196674    1.03949629722285

