81
CSD_code = WIDTUZ | q = 1 | S = 0 | Stoichiometry = C41H35NiO2P2(1+) | MND = 4
Ni       13.84459915763360    2.17363884093003    1.38344702869169
P        12.87360428239078    0.26640427154492    1.16002753391848
P        12.28946490861659    2.88281330006821    0.06568556069652
O        14.66744033443224    3.83984718121147    1.44280928983128
O        15.01154779341190    1.44675279676706    2.62692478212777
C        11.04763960761092    0.50946148381730    0.87811445665421
C        10.75614315414147    1.98863336508716    0.59928757564092
C        13.05440016904293   -1.03537464174277    2.40041568075842
C        12.55383136980595   -0.78050592183964    3.67607881413946
C        12.75834170329425   -1.69255137729147    4.69279880917080
C        13.47474192277508   -2.85414416069116    4.44566262916270
C        13.98808058576582   -3.10119128938769    3.18285742518119
C        13.78998658741539   -2.19118154001091    2.15912985618235
C        13.48171349944413   -0.41726625439743   -0.40673296769676
C        14.59786762519958    0.19727296107028   -0.96790179224031
C        15.09712573155609   -0.24004571762662   -2.18001790218423
C        14.48189947772527   -1.29590872073538   -2.83377188966855
C        13.38077458881530   -1.92209769726318   -2.27031599494506
C        12.87785624837507   -1.48863456930935   -1.05674296055178
C        12.54272147468916    2.52431679171616   -1.69252284376345
C        11.75660716273353    1.66362800686052   -2.44783115266764
C        12.08900322643555    1.41196996965055   -3.76802063059176
C        13.19981243568734    2.01163744417404   -4.33685067431375
C        13.98786852692552    2.87126281800468   -3.58610251190910
C        13.66568815704033    3.12041399359607   -2.26690651840305
C        11.85221937974851    4.63727257420431    0.14873280441757
C        11.49295206033631    5.38277538263169   -0.96875302516281
C        11.20209074163377    6.72810084384163   -0.82419207090925
C        11.27697540060513    7.32988575506050    0.42190346896221
C        11.63624424643177    6.58739752332681    1.53665407067541
C        11.92375770388321    5.24316728913298    1.40146775873115
C        15.67336379630410    4.19519487268681    2.14246273664887
C        16.39502413683355    3.33748914992572    2.97991362424544
C        16.01084890085447    2.00912910256688    3.18530823290773
C        16.04451881046487    5.62454157868644    2.01876063504913
C        15.52419716477876    6.34894978970300    0.94396587403198
C        15.81732897875903    7.68883584951646    0.78940457456221
C        16.63086544293131    8.33021825701814    1.70964702005163
C        17.13998463684944    7.62451371758152    2.78789565207865
C        16.85013022258480    6.28216397661735    2.94695549083881
C        16.77301018202344    1.14074969534237    4.11243324678705
C        17.52999010795013    1.64710342766686    5.16688883167104
C        18.19885367133341    0.78500151418122    6.01585264783546
C        18.12033360243622   -0.58564484314027    5.82815173960873
C        17.35976633028829   -1.09718058298876    4.78895998771227
C        16.68751931421599   -0.24150130962740    3.93935495962190
H        10.75205146882340   -0.12003152225138    0.03596975768958
H        10.50454129774439    0.16367176542709    1.76094405279935
H        10.44080220908112    2.49222100860762    1.51960756429865
H         9.96012618422085    2.12872583034837   -0.13651086226613
H        12.01863309952225    0.14143710826977    3.86449160092685
H        12.37010023788148   -1.49688527748947    5.68067844998797
H        13.64035109766201   -3.56300392823858    5.24222135408548
H        14.55261148632784   -4.00199698164400    2.99512943944360
H        14.20416204682767   -2.37531330847197    1.17791341476300
H        15.06699029536302    1.02854947035824   -0.43540863845442
H        15.96002681079609    0.23912699043982   -2.61609730861400
H        14.86527819067866   -1.63705561796113   -3.78287567702285
H        12.91410996550594   -2.75233339381870   -2.77819004525907
H        12.02691430185124   -1.98563297827600   -0.61148111167841
H        10.88539994182435    1.19156316434737   -2.02004530389588
H        11.47646106703593    0.74430867287227   -4.35457139027333
H        13.45239622684868    1.80922678330728   -5.36612679713791
H        14.85283053604501    3.33980721567938   -4.03020001896998
H        14.27865898049588    3.77482919301599   -1.65938081800592
H        11.44459805082648    4.91428608685813   -1.94132069533786
H        10.92110748128310    7.30983422060039   -1.68889493174725
H        11.05899138297654    8.38178164428693    0.52440012971870
H        11.69896340979901    7.06004170043550    2.50494090246855
H        12.22529638916948    4.65159457121178    2.25860397394563
H        17.28021270711931    3.70120584841360    3.46694023721643
H        14.88673900692164    5.84455315399250    0.23267238467793
H        15.41084076387799    8.23420118750477   -0.04899379252740
H        16.86332016197477    9.37737574646766    1.59098246219024
H        17.76425662907966    8.12453425096658    3.51273523657746
H        17.23713498577167    5.76092728028429    3.80802297541291
H        17.57867350624374    2.70972325382445    5.34650369642193
H        18.78117745872911    1.18478929694689    6.83205413499167
H        18.64633826521796   -1.25237790968859    6.49412950774528
H        17.28969730837001   -2.16434086116176    4.64142575822113
H        16.09227248584329   -0.63175856374436    3.12674049377805

