95
CSD_code = WIFDIA | q = 0 | S = 0 | Stoichiometry = C30H57N3ORuSi3 | MND = 6
Ru        0.11543759715049    8.42070612925056    3.18525006579757
Si       -2.13746300793100    6.56437346173166    5.20860313062235
Si       -1.94952606201757    9.73429957134154    0.68579132307381
Si        2.93801565498853   10.53315278673387    3.56397366702551
O        -1.38766263774182   10.59993506714958    4.15726409648507
N        -0.81006071341523    9.69972493556969    3.66897258213567
N         1.35922855728693    6.83043710484360    2.82801042907713
C         1.54888805626729    6.20852576611705    1.65653370639775
H         0.99822648104776    6.59741128689400    0.81075129419320
C         2.38372586367910    5.13111897001877    1.48221212038109
H         2.46953550619073    4.69824528819215    0.49889914172941
C         3.10495054820667    4.61147454483142    2.56527905875354
C         2.91513810040992    5.25338534942467    3.77370500622195
H         3.43651541330258    4.91776544618041    4.65225011494605
C         2.05232454931805    6.34773999284731    3.88834202450033
C         1.84132998246464    7.06227549004048    5.13304763243732
C         2.45670439863359    6.73527960263316    6.34216332180737
H         3.11781167394533    5.88609090688962    6.38302695387585
C         2.23153916598965    7.48422906233061    7.48534078299768
C         1.36721666754645    8.57561254797609    7.34448599228920
H         1.13919820241465    9.22166292387853    8.17473742301770
C         0.78520889185326    8.84021283658199    6.12504267730461
H         0.12097904373695    9.68794719386665    6.02463085037912
N         0.99650472531331    8.10823519214616    5.03057299897407
C         4.02422795827563    3.42188082035773    2.37548897669976
C         3.19461835824441    2.23383400259027    1.86808123067447
H         2.41517253274698    1.98326548893205    2.58472468133322
H         3.83388882196484    1.36407469994765    1.73614170440765
H         2.72333764905140    2.45691618866980    0.91503870776117
C         5.09796338102702    3.78808186842556    1.34101691823348
H         5.67291516875213    4.64718206217798    1.68056975000291
H         4.65595246868819    4.03154975599198    0.37898686277245
H         5.77859529310426    2.95166795071182    1.20057342908160
C         4.72218384603899    3.00748500715450    3.67319320981232
H         5.34334730253368    3.81299634520144    4.05880858069353
H         5.36621725759161    2.15264436040598    3.47971125057072
H         3.99894129371906    2.71569497674610    4.43159077126995
C         2.90491758516799    7.10963144911677    8.79154130342489
C         4.42717400688714    7.17702359404217    8.60214755928395
H         4.72652661365359    8.17954624930390    8.30338754956293
H         4.76543718753693    6.47991412041341    7.84021521876650
H         4.92934697487401    6.93115722273024    9.53493341664383
C         2.48578616164645    5.68268285775606    9.17345571883235
H         1.40396753694246    5.62039272156152    9.27037325321961
H         2.93398711131060    5.40545471954586   10.12477477662753
H         2.80210270129433    4.96016576230380    8.42604086333768
C         2.51691790522348    8.04950649915356    9.93536542441436
H         1.44495831194068    8.02309255126783   10.11697465233337
H         2.81897460635779    9.07233438823110    9.72229480292703
H         3.01930231881120    7.73553409863774   10.84767622914447
C        -1.41596920731753    6.88990074311928    3.49320374331495
H        -2.25046313102869    7.17427789399870    2.84786124473635
H        -1.03505299877967    5.94098245719624    3.09360238452997
C        -0.61810949825026    8.46494085196293    1.15904067949763
H         0.22358316759806    8.63076669503448    0.47574586448949
H        -1.02014803720386    7.47615496977324    0.90706376906975
C         1.75692003560654    9.63014786102140    2.39961906694853
H         2.35159251082320    9.00219213733919    1.72474920958714
H         1.28005304325053   10.38473857378852    1.76779074515325
C        -2.78726161031242    8.13963245159160    6.07482836173703
H        -1.98513931528291    8.75694696246621    6.46621465774878
H        -3.43878578330023    7.88608181614790    6.90627013252257
H        -3.36157047899847    8.75061078592760    5.38527747325410
C        -0.93114445141871    5.65344426088461    6.39459256369909
H        -0.34812376775114    6.34426070651777    6.99490043365910
H        -0.23522486714837    5.02216876237314    5.84889514670288
H        -1.48003889926066    5.01377763477340    7.07908158715165
C        -3.64291374037413    5.39408400393936    5.00632221759583
H        -4.39963311720938    5.83639182072291    4.36669266357552
H        -4.10816044514289    5.17954025908758    5.96349491847309
H        -3.35413160840501    4.44597386518678    4.56309879907203
C        -3.56226673081806    9.52574670133729    1.69686227236626
H        -4.02193307622822    8.55923934515592    1.51331202684940
H        -4.28785691355642   10.28760106469026    1.42799650298427
H        -3.38199534922395    9.60612053589663    2.76383158715885
C        -2.42769685481671    9.48920304504131   -1.15547245339540
H        -2.81997767939242    8.49334676653992   -1.33545178109274
H        -1.57316945473359    9.62750459842285   -1.81010318745870
H        -3.18955403255150   10.19944204171992   -1.45951448964647
C        -1.31671071470021   11.53427391498984    0.84888631547222
H        -0.44609854457071   11.70410131024760    0.22246949522485
H        -1.03905175963939   11.77497910699936    1.86991544736855
H        -2.08112687060281   12.24199490253840    0.54233068284708
C         2.03730863883984   11.67140811018427    4.81567477074827
H         0.97201274349620   11.71761811281899    4.61134167563874
H         2.41823980423386   12.68629662374107    4.75856775385646
H         2.16456178963871   11.33359609347861    5.84001778142359
C         4.08030784586101   11.65702503365057    2.51153441824760
H         3.50300657824757   12.37857763969601    1.94261022565487
H         4.66762733402028   11.07880740013648    1.80491209842637
H         4.77347051897175   12.21157682722678    3.13685836657006
C         4.11986639998476    9.35367570764813    4.51694515310997
H         3.73472423051155    9.08792803481837    5.49639759496676
H         5.08760692761253    9.82275996080927    4.66685282865016
H         4.28880035724435    8.43091039098421    3.96838601543584

