39
CSD_code = WIFPOT | q = 0 | S = 0 | Stoichiometry = C15H20N2OPt | MND = 6
Pt       -3.76074957808214   18.08911214634362    3.24638015821214
O        -2.83755525767752   17.69647653310637    5.16568997974778
N        -5.31037351333364   16.79555053511977    4.18771056447070
N        -4.86944333659092   19.56251521846976    4.54708872361625
H        -4.95137013605615   20.53041887013176    4.23184142203849
C        -4.77907232485816   18.48575566351148    1.49601315960777
H        -5.57779762080557   17.74964886809554    1.37393753962076
H        -4.16372249137073   18.45938899766612    0.59857550557178
H        -5.23755363994734   19.47709751493420    1.55014378119267
C        -2.75769198211360   16.59984241673067    2.25873955924227
H        -2.14225220483748   16.93681295464269    1.42583671693910
H        -3.47153452867543   15.86586814689705    1.87749601759226
H        -2.11324105489167   16.13406877951168    3.00757827349054
C        -2.30998011535972   19.45253217974269    2.76111034217338
H        -1.98872260800971   19.88252839921675    3.71352089698360
H        -2.69915089410686   20.24808940657359    2.12336353192525
H        -1.44020920165203   19.01266496731890    2.27667734772341
C        -5.12307763596771   15.51124436306654    4.45814699912896
H        -4.49322855517699   14.96410150469840    3.77105895837541
C        -5.69231525233523   14.88453223968331    5.55339154059031
H        -5.50536414338829   13.83876736719993    5.73759108489280
C        -6.48722065885994   15.63224731178201    6.40648622376619
H        -6.93718344100465   15.18520512010574    7.27998060839721
C        -6.68480366927527   16.97325341592374    6.12282236140257
H        -7.28748350573498   17.59340618178792    6.76830915002146
C        -6.07798488242942   17.52153380890841    5.00225689822084
C        -6.21469626463155   18.98088035123403    4.65692877299530
H        -6.72704244351220   19.07963458256834    3.69207427706564
H        -6.81218990224610   19.48792766461072    5.42842434576159
C        -4.19800462835375   19.53532025526595    5.83696285088094
C        -3.22182532782702   18.53484507265346    6.06724386896094
C        -2.66728606794405   18.49900462342906    7.36734941942098
H        -1.92972320454999   17.73657415886673    7.56990354055953
C        -3.03232470750161   19.40460160961690    8.33391308702150
H        -2.57818627099122   19.34821535144945    9.31355250341049
C        -3.96680117155961   20.39726517533153    8.06854743033657
H        -4.23797098303697   21.11712913933119    8.82566084915397
C        -4.54707302318153   20.44818386541313    6.81556297556308
H        -5.28079377212398   21.21405523906407    6.58802873392720

