39
CSD_code = WIFPIN | q = 0 | S = 0 | Stoichiometry = C15H20N2OPt | MND = 6
Pt        4.25879199996074    8.50137118028274    4.73067915847163
O         5.97097827856811    7.18030373588391    4.80255757762901
N         3.43386231423544    6.72768713149768    3.66938870608795
N         5.08018068384543    8.77581070186620    2.64090534646274
H         5.20896443643847    9.72202764116638    2.27869236268014
C         2.61942183040189    9.73357649234197    4.50328057200534
H         1.78723967749267    9.14490262435460    4.10758490239926
H         2.27677659043599   10.21432374104184    5.41790716628995
H         2.85084183165211   10.52457873442738    3.78440753610541
C         3.58883944069647    8.00903164041748    6.60398417447916
H         2.55811461318981    7.65065473060146    6.55198384602235
H         4.24400394549828    7.20399231672606    6.94362687864051
H         3.63407425379348    8.82317868737315    7.32539422602881
C         5.34380350002879   10.02856728712749    5.55358418487621
H         5.87160586431866   10.53522618370853    4.74085816755129
H         4.76186326545819   10.76515448061300    6.10527158901789
H         6.08236821486502    9.58448713033957    6.22258380613832
C         3.19947614416857    5.56987686669992    4.27155649175385
H         2.88039567051517    5.62315551218180    5.30289626411572
C         3.34836222899595    4.35005581671404    3.63427102752886
H         3.15478956893875    3.43283880233891    4.16693856586236
C         3.76313712479732    4.33818741362895    2.31253536720344
H         3.90620819328229    3.40773328510465    1.78409541552849
C         4.00293761097975    5.54770221236241    1.68225917530181
H         4.33710109106669    5.58202850637841    0.65675658878898
C         3.82800558635324    6.72490651193292    2.39520344456968
C         4.11005108213264    8.07373132964992    1.78867526827886
H         4.49017680342535    7.94583228230286    0.76471753366313
H         3.18182062422551    8.65696870166934    1.75049342215966
C         6.35963372460985    8.08321316517757    2.62996425990803
C         6.69903396585768    7.27413369397303    3.74187047150246
C         7.91020897146935    6.55277792320157    3.63542316582274
H         8.18354896294099    5.91871255480824    4.46593555866367
C         8.72198694047524    6.66150472127139    2.53233748418056
H         9.64438220068557    6.09857785733748    2.49389068214606
C         8.38098943807906    7.49098113107695    1.47190849297603
H         9.02955666950974    7.58643676664590    0.61443093066107
C         7.19255485942711    8.19335158296021    1.53130250432553
H         6.90581179718897    8.84481892281229    0.71254768417388

