39
CSD_code = WIFQUA | q = 0 | S = 0 | Stoichiometry = C15H19IN2OPt | MND = 6
Pt        2.97797707425649   -0.92841888478968    9.79579888314901
I         5.42008869422372   -1.65166957420556   10.77292468781959
O         5.83159344636758    2.16241318779293    4.13063891184552
H         6.45852125537983    1.49347247490039    3.82850069881288
N         2.78663858616560    0.37387318026148   11.60015938747693
C         2.11097906870778   -2.62638638383438   10.57798746529319
H         2.40211567658375   -2.67294523333941   11.63163193559471
H         1.02175719260042   -2.62405072099883   10.51305319740814
H         2.48438482223032   -3.53141873466935   10.09453918701399
N         3.88730275893656    0.98738475639152    9.17091904397565
C         3.14453734225108   -1.95326360534160    8.01346961491205
H         4.03783267015801   -2.58112884718421    8.02851394371005
H         2.28808159374704   -2.58965232534646    7.78873476100734
H         3.24223012822794   -1.21847345929132    7.20884016021934
C         1.12663277511294   -0.28490104445927    9.12981691629278
H         0.55242811304568    0.08357795227755    9.98317000337457
H         1.26832498029496    0.54122863231045    8.42944686921702
H         0.53423909339088   -1.04742492347289    8.62928276195734
C         2.32550174469676    0.07093200480127   12.80274375983549
H         1.92312160041280   -0.92541890224287   12.92781866876362
C         2.34536334059573    0.96032179766493   13.86431491291360
H         1.96163481986353    0.66170240750542   14.82638298734636
C         2.86865926261005    2.23051862688391   13.66201567082958
H         2.90410446017059    2.94806693382049   14.46755029522497
C         3.34570833547772    2.55589968171990   12.40815058961935
H         3.76549574089631    3.52888504519472   12.20411384813025
C         3.29257514806632    1.59955260422590   11.39002176806622
C         3.81663541289011    1.89051500566345   10.07601470812335
H         4.20051580840552    2.89817813604059    9.90591733298113
C         4.39088182259944    1.29624079498896    7.91267045611129
C         3.97421801830526    2.43981001826300    7.22656333776128
H         3.23639966098586    3.09210890915894    7.67226923104860
C         4.45159712758246    2.70753899319735    5.96292265971038
H         4.11952234609226    3.57464124961244    5.41494443554599
C         5.38002184570962    1.85372609953643    5.36977069802963
C         5.80799365684911    0.72145557543308    6.05816136635609
H         6.53406377671734    0.05928157566327    5.60678102086675
C         5.30992380605435    0.43621214979785    7.31104616487083
H         5.65729699332058   -0.43248515393073    7.84789765878442

