111
CSD_code = WIFVIS | q = 0 | S = 0 | Stoichiometry = C28H66B10N6Zr | MND = 6
Zr        8.14491346795085    9.13802257879350    7.90444073193084
C         9.07160463377352   11.05637159001710    7.40640896538718
C         9.52819321086040    9.86563608940839    6.37024883940289
C         5.59149692864392   11.44190177020181    8.79200513965904
H         4.69177199751315   11.26300307704494    9.40758355382187
C         5.20415422644927   12.37719579290402    7.64170687634379
H         4.85674318473357   13.32876301876801    8.03819075093459
H         4.40871469139617   11.93794512508645    7.05103056466784
H         6.06658848355241   12.55062282518331    7.00365183643432
C         6.63214014882805   12.13076802093394    9.68353634476201
H         6.70460770161841   11.63674104198412   10.64927050271307
H         6.34383300956435   13.16547568379582    9.85496369600082
H         7.60593870391651   12.11012384601656    9.18694553619701
C         5.53329425694179    9.38536815423863    7.46021054336668
C         3.15839997531075    9.35798975932551    8.10853688283093
H         2.18952665423594    9.36195434738347    7.60487259150224
H         3.16367184479928   10.19663163402274    8.81377464768422
C         3.31793396869489    8.05140425551303    8.89531339527191
H         3.22277118878331    7.20387481452625    8.21175265491407
H         4.32270209140123    8.02613677055586    9.32538705018786
C         2.28012235114244    7.93275730082678   10.00310312112748
H         1.27429046701991    7.95460836346557    9.58913448416716
H         2.37870208608774    8.75619291501713   10.70697078699751
H         2.40663899001958    6.99978507804058   10.54730026823144
C         3.77679693140403    9.35868142488592    5.71797316689098
H         3.15197889955048    8.46023601610947    5.59754299046454
H         4.67758838115930    9.24229531554131    5.11507750703209
C         2.99216081142167   10.55965744702846    5.17165560219938
H         3.64898640532216   11.42848354261467    5.12208209640074
H         2.16407951841962   10.79898610665434    5.84181935336671
C         2.45042620818529   10.26041236772275    3.77918509058031
H         1.90781266377522   11.11836633287935    3.39066190234264
H         1.77323921072611    9.40878578554064    3.80338856304106
H         3.26488677058369   10.03155044555091    3.09586741349481
C         5.86320170176116    7.21343020130929    6.35203407886547
H         4.76771141334075    7.17749876879553    6.27390413036121
C         6.48186151838483    7.05321849488457    4.95658728612299
H         5.97860526666790    7.69284879828431    4.23476012123223
H         6.40606790920458    6.02423948320158    4.61266167761471
H         7.53053371190977    7.35292183092843    5.00191583715982
C         6.29715984989274    6.06326506740654    7.27630455554076
H         5.80038613072452    6.15670530986690    8.24336938875455
H         7.37726830877446    6.11739362625316    7.42840779544029
H         6.03283091480313    5.10004501690663    6.84248472139411
C        10.23438140530053    6.31133566838593    7.50676914059603
H        10.17492154979330    5.27483126826109    7.87197615698951
C         9.96232325575936    6.30130739095858    6.00051385948501
H         9.06430791302328    5.73174787699911    5.77186899102096
H        10.79943997770863    5.84365316764907    5.47830554185982
H         9.84381854757803    7.33092819167403    5.65176119409875
C        11.66117532056098    6.81961682957772    7.76198625188724
H        11.81224040142716    7.01350647911565    8.82003036235339
H        11.82858378605078    7.74595056348459    7.22096062011025
H        12.38723083083566    6.07901800969239    7.43195945958329
C         9.18667620003846    7.26760700655009    9.48272935475027
C        10.53543155601592    6.56954051088361   11.44199962940939
H        10.05420016308223    6.43512717074721   12.42324723102573
H        10.80687727999115    7.62330640809094   11.34259458871423
C        11.81968812071896    5.72932244269126   11.43515558337822
H        12.26584219237976    5.73844275783756   10.44029398982925
H        11.58617177978807    4.69383168979834   11.68849931705282
C        12.81884930945456    6.27894031746402   12.44586542180816
H        13.71498519593224    5.66375121603311   12.46713038515308
H        12.38650701317443    6.28945022235336   13.44447191356208
H        13.10673034564792    7.29535561384152   12.18670303875372
C         9.26061855057297    4.88362670089997   10.12785708142225
H        10.14531420289664    4.28656958133151    9.86109030298745
H         8.56321698462967    4.86387652730478    9.28749272934345
C         8.57375874366655    4.20961806149148   11.32480353954136
H         8.46293080011292    3.14988803116030   11.08379248068650
H         9.20954041378004    4.28085280174915   12.20788200077347
C         7.20578586952080    4.80458531384079   11.62831173345748
H         6.73580664644793    4.27885455962992   12.45676162522166
H         6.55644371496128    4.72712633058122   10.75812598681606
H         7.29934444882218    5.85277403222155   11.89616096809491
C         8.17529031332664    8.61806797108880   11.26131423577742
H         8.45750289296304    7.79458759241994   11.93077754361975
C         8.79390807773107    9.91888389184722   11.78937050450560
H         8.28299105518217   10.25890150294137   12.68732407412725
H         8.73212439907062   10.68526108871106   11.01465599218588
H         9.84454634075571    9.76580000035773   12.02814463123801
C         6.64054896798868    8.69167460225490   11.23139966868366
H         6.22920418267243    7.71304247860561   10.97991138833646
H         6.32765039133026    9.40697573845487   10.46904596171613
H         6.24845259981552    8.98983535837337   12.20240055055285
N         6.14817932541575   10.17502666083315    8.32781935539469
N         4.18213548193151    9.53910125517209    7.09831140470614
N         6.33203065830131    8.45694586319966    6.93366671580018
N         9.24917726583094    7.17033848529793    8.15795990247586
N         9.61840583009239    6.26505140481742   10.36217649049423
N         8.65389883547690    8.40812667612600    9.90796682535216
B        10.68251994087275   10.46343741644644    7.51111101749069
H        10.92596176223138    9.77321874634888    8.46042743046545
B        10.34571805771072   12.17825162879516    7.66150620365315
H        10.42880586145985   12.69631286727117    8.72269489133371
B         9.00178493829485   12.57497717928471    6.59429075959091
H         8.20781045818724   13.37942767231107    6.93913887354677
B         8.48678729490394   11.10724281054416    5.78266494792437
H         7.34511387685743   10.80298638997192    5.59572934560527
B        11.15500296024475   10.10996228790989    5.85630807166909
H        11.83164274238107    9.17399338511512    5.60351923788082
B        11.71202433709207   11.60707358262209    6.65686587433505
H        12.83870346715225   11.77358968023387    6.96618626837640
B        10.66226356055708   12.92805281056484    6.07779711965253
H        11.05656358747679   14.03673736339330    5.98721465643867
B         9.49109354267425   12.25530691194003    4.90633713212850
H         9.06684737063484   12.87912120137147    3.99872942385156
B         9.80136073290311   10.49511462126602    4.79776482266747
H         9.56379870561049    9.80044029725000    3.86941382418834
B        11.16237981311482   11.63680221019541    4.95564862941031
H        11.91699106210260   11.82299238554357    4.06748270256645

