53
CSD_code = WIFVUD | q = 0 | S = 0 | Stoichiometry = C26H22Cl2N2Pt | MND = 4
Pt       13.97911025985459   11.75864149633121    9.19976873310801
Cl       12.03474849979227   12.66992661330518    9.91046752188339
Cl       13.61373015480008   12.39010285744367    7.05763792571430
N        15.66233352023365   10.96562743858800    8.50138487214762
H        15.53025208176623   10.48073930971444    7.61238912678209
N        14.24364685836397   11.24996962199230   11.10274698331165
H        13.97605419278276   11.99559048915699   11.74734441941398
C        16.87104555577556   10.99291759503716    8.94289364528758
C        17.96518716638942   10.27210645706225    8.28672268935667
C        19.27435491237240   10.75303711584921    8.35797813523843
H        19.47641773437682   11.66957134393200    8.89181927014621
C        20.30167494635493   10.07902863513364    7.72630351720577
H        21.30830721303310   10.46571819744190    7.78009238877709
C        20.04373857504570    8.91234872350753    7.02442177521663
H        20.84913640241015    8.38503931207980    6.53600450343451
C        18.74839430539757    8.42510845787171    6.95025343671364
H        18.54368113622933    7.51518335400997    6.40638194276148
C        17.71471263446224    9.10037553639462    7.56883956176557
H        16.71192766622937    8.70109163930005    7.52255154668939
C        17.16540107154343   11.78087476345912   10.14842004795315
C        16.61409728398323   13.05523214443468   10.29479830216962
H        16.02806097686251   13.48317406568486    9.48885939076688
C        16.86491742212357   13.79132081392466   11.43899781937847
H        16.44344343930397   14.77980050573619   11.54182228999026
C        17.65355816926811   13.26283860725632   12.44910309854760
H        17.84190006647336   13.83573743839811   13.34491616441360
C        18.20831261752568   12.00050696411332   12.30620332427608
H        18.82451906044007   11.58924082714008   13.09181522744979
C        17.97527527721756   11.26546464983162   11.15896929428834
H        18.40552418133572   10.28120340077666   11.04484548498001
C        14.63574494495563   10.15585334329575   11.65559501787095
C        14.91361799987585    8.99086945680770   10.80355714123970
C        14.04129343589147    8.66946878297346    9.76189107579787
H        13.12956554150568    9.24152434515428    9.62865863682367
C        14.31081465347810    7.58912772024371    8.94087542850484
H        13.62740990543613    7.34010087996624    8.14315583554583
C        15.45268386902982    6.82902827931265    9.14088147538975
H        15.66523203925740    5.99060699149865    8.49434882564411
C        16.31908356900160    7.14017793571212   10.17730048371216
H        17.20763049736019    6.54724876524938   10.33520613595109
C        16.04828672977559    8.20846065148571   11.01161501909079
H        16.72163050210498    8.45365823480893   11.81995726834881
C        14.80786618834518   10.02617997654991   13.10509230812548
C        14.61906808885271    8.79363291731374   13.73373652384281
H        14.33609050248328    7.93384907238818   13.14518820377543
C        14.76352005191119    8.67807948838715   15.10281844855112
H        14.60504760859569    7.72224894380380   15.57909645757456
C        15.10784030993236    9.78338316954285   15.86431346439725
H        15.22363764427793    9.68958531711108   16.93342912505921
C        15.30173484006993   11.01011875699926   15.24938939039858
H        15.57307373552451   11.87293491892268   15.83877375329098
C        15.14726464038166   11.13551586923213   13.88278392850464
H        15.32089932022422   12.09142780832618   13.41038361339202

