36
CSD_code = WIFWIS | q = 0 | S = 0 | Stoichiometry = C15H16ClNOPtS | MND = 4
Pt        5.94475542294214    1.02784069708611    7.72475286303115
Cl        5.35742616085659   -1.13892840811442    8.39499314315423
S         7.20096397718711    0.00354965026535    6.16955403718746
O         8.01416938489604    0.76326645402526    5.23042956629596
N         4.82617631606499    1.86810847631415    9.11055315974762
H         4.31287588058976    1.33855628237279    9.81767020604313
C         4.78608923184585    3.16519099957322    9.18047329866360
C         4.01517649133032    3.84791868792436   10.22585922948186
C         4.57897414759565    4.88015024515873   10.97430787875574
H         5.60205203449642    5.17151708898426   10.79183519931213
C         3.84429812757743    5.49549474590508   11.97106319636294
H         4.29011138929615    6.28852823154207   12.55256609573945
C         2.54182912962386    5.09771143102723   12.22575806787286
H         1.96918894967491    5.58524633182788   13.00023687305311
C         1.97639132480745    4.06991188868296   11.48852478959757
H         0.96248023832036    3.75604268804184   11.68612477802335
C         2.70968213819665    3.44084923696525   10.50021598932448
H         2.26515808146964    2.64891995697147    9.91482586066290
C         5.55142368957446    3.84618275527926    8.15557710803741
C         5.57484669527046    5.22787396398882    7.95715779190615
H         4.98102699832351    5.87799674190004    8.58329956200155
C         6.34660464009122    5.75287551407887    6.94059829085077
H         6.37332673510155    6.82055266731333    6.77896558393871
C         7.08217495265698    4.90683590444397    6.12188116800733
H         7.68707079887948    5.32460410000205    5.32984864659999
C         7.03619364917275    3.53057186059758    6.29714303265712
H         7.60356710159673    2.89171481336272    5.63601188997238
C         6.27004769134514    2.96793908287175    7.30568830731770
C         8.30361483139620   -1.24014886287770    6.90891937030673
H         8.81323689439882   -1.76306721191283    6.10784163535938
H         7.70120007174628   -1.91095465321425    7.51054281134400
H         9.02333905528585   -0.71580097300707    7.52970856141408
C         6.16689275752442   -1.10941330457472    5.16830290866463
H         5.46003160397131   -0.49559242050270    4.61839467707880
H         5.64457590039610   -1.78027770722316    5.84070400025747
H         6.80762750649692   -1.64766695507928    4.47937042197622

