105
CSD_code = WIFWAL | q = 0 | S = 0 | Stoichiometry = C30H60B10N4Zr | MND = 6
Zr        5.75010673867158   17.99277403962606    0.68191805298445
N         7.07139205453548   16.76060095364281   -0.56425741783242
N         7.38637257357434   16.76299489411206    1.63571719617841
N         5.08120654754209   19.52417104121853   -0.88893265275547
N         6.69572544388485   19.92618653311492    0.58586949178521
C         4.52389683137650   17.70657574019614    2.47193456289810
C         3.61733439984001   17.73634279031747    1.10751055460026
C         7.53879537089863   16.76116154736363   -1.93466985457603
H         8.06382517762676   15.82578513193056   -2.19580008983294
C         6.31611053613098   16.89921019410798   -2.84244556637142
H         5.79899240215812   17.81204310613342   -2.52988272894308
H         5.65038851139715   16.04462582546051   -2.68329154307027
C         6.71908042985634   16.99272801992393   -4.31153442210933
H         7.21500947021565   16.06667714147660   -4.61448985333752
H         5.82864472570008   17.10838253153681   -4.93375330222008
C         7.66663792714328   18.16796490668745   -4.53738008675507
H         7.15075066682924   19.10326540412741   -4.31006302884230
H         7.97459029710709   18.20184793132387   -5.58470313934391
C         8.89227779726465   18.04510482161882   -3.63804254050501
H         9.55072226744431   18.90402636771585   -3.78653490140091
H         9.45245086910048   17.14645392250070   -3.91024966268350
C         8.47766141430583   17.95665301858748   -2.17243252175910
H         9.36381495544909   17.86122911256968   -1.53967159538703
H         7.94348544502853   18.86669023593642   -1.86975362453175
C         7.85741767677018   16.41371998329576    0.44971196155369
C         9.17921254721253   15.68580890621607    0.28655160356776
H         9.17829398485578   14.76497298894239    0.86515566109860
H         9.99075857870680   16.31643775777117    0.64972330393598
H         9.37698375369577   15.43531376884330   -0.75021468627643
C         7.98189003624633   16.23762756949917    2.85490699668415
H         9.07988755065877   16.17258892848798    2.76510962938516
C         7.65881977621610   17.17023030172088    4.02593084421504
H         6.57379635134481   17.27559774703017    4.10143953970791
H         8.08926693703125   18.15324329030376    3.82718152093764
C         8.22384057700925   16.62593152258094    5.33575684577528
H         9.31502033448039   16.57803776129449    5.27280962891675
H         7.96647529653154   17.30184754438364    6.15363849836870
C         7.67500093307267   15.23234738458580    5.62194298731567
H         6.59238892759561   15.28918620536303    5.74472581634168
H         8.10078446613429   14.84623562786022    6.55040817505441
C         8.00289958379681   14.29279171054641    4.46642080000889
H         7.59147485882224   13.30090679389674    4.66349811537970
H         9.08838386520604   14.19239163469520    4.37634044646403
C         7.42768515037089   14.83574521753826    3.16207167451689
H         6.34166730907596   14.90690733787210    3.23801591172792
H         7.65644896265936   14.15352881069995    2.33989577801971
C         4.00356599514472   19.89954514324244   -1.79463946267852
H         3.35215441427500   20.65086762219929   -1.31497199573887
C         3.12545127010267   18.68228301830633   -2.11304177795518
H         2.76851836389529   18.23773225678022   -1.18316312534967
H         3.70953322922663   17.93207114425259   -2.64905573791714
C         1.94198664898934   19.10267004720088   -2.98170065960720
H         1.31440287968946   18.23497059489915   -3.19202208485687
H         1.33253052304694   19.82947763992391   -2.44036265188900
C         2.42912573132350   19.72083074506822   -4.28945066104590
H         1.57811092794227   20.04742755457062   -4.89048502004941
H         2.97477274462728   18.96869938792740   -4.86426483726339
C         3.34969032758532   20.90449118409150   -4.00792835009577
H         2.78293916929461   21.69179983957351   -3.50489104110346
H         3.72771720591207   21.31495228799994   -4.94728894196201
C         4.51891345408511   20.47698697736282   -3.12515097822526
H         5.18092333258878   21.32570873301072   -2.94703395016135
H         5.09649470072303   19.70860843433077   -3.64238354196039
C         5.77706500613105   20.43796148481291   -0.23194191288548
C         5.58461176444032   21.93584567623929   -0.36791191734762
H         6.39748495555738   22.36367135008160   -0.95477024933522
H         5.58664778607357   22.40279381623964    0.61481876397886
H         4.64381880536877   22.17298092247076   -0.85314421697490
C         7.55320656086951   20.74075583703350    1.42011049996621
H         7.70761421834065   21.74539314867940    0.99570114935028
C         8.92032833968342   20.04887408726906    1.51267045385461
H         9.36050821954222   20.00006711293618    0.51269237486231
H         8.75765983801898   19.02198440404349    1.85919214552542
C         9.85588112980734   20.79925540990983    2.45668521873198
H        10.81276887241618   20.27683376024564    2.52207421195768
H        10.04994513776778   21.79615790853353    2.05217263079541
C         9.24276917927757   20.93428100792660    3.84749338334423
H         9.90970889376130   21.51424071072173    4.48884852563856
H         9.13053342704780   19.94585467732664    4.29617778147161
C         7.88051962717356   21.61695369338279    3.77073512419293
H         8.01405994450957   22.64114346378565    3.41204747943228
H         7.43444111339536   21.66844734495696    4.76544069496591
C         6.94016736106054   20.87359396320461    2.82513354574413
H         6.72407777842318   19.86182641291667    3.19796541718147
H         5.98854040800542   21.40844830346808    2.76143596680912
B         3.87030804878324   16.21824836753514    1.86954789741638
H         4.63674389660077   15.47531367264611    1.30688330823277
B         3.87541775532999   16.56224569574819    3.58989646890544
H         4.59875758836853   15.97616949272834    4.31663631396586
B         3.63875406920115   18.29644104387600    3.81318431344944
H         4.22914153059208   18.86836840208703    4.66439076056464
B         3.45793960069757   19.03435355458609    2.22894976805757
H         3.95775974663169   20.07919355292410    1.92669450578625
B         2.29915265253643   16.64121294283128    1.20599375389920
H         1.93133175858182   16.11770953655115    0.21006222635832
B         2.42427200875460   15.87012266929207    2.81330773355365
H         2.07073125804065   14.76297168673732    3.01611942552704
B         2.27197790059963   17.17090151233796    4.03249939355263
H         1.80928588579518   16.96554805806965    5.09830213575152
B         2.01614929369489   18.72014965022013    3.18824813846495
H         1.37370142074820   19.59829188180118    3.64425477534431
B         2.04535794666929   18.37172505252521    1.43650986118730
H         1.49133716774008   19.00633059431162    0.60733561342647
B         1.28430499760528   17.21861041984637    2.54899867021031
H         0.11661587731264   17.05001110177033    2.55751030408378

