81
CSD_code = WIGDUN | q = 0 | S = 0 | Stoichiometry = C31H46AuClN2 | MND = 2
Au        6.39485113509178    1.87462073574430    5.83806636025100
Cl        7.56197036990910    2.41605573117736    3.98957133267239
N         6.03715700755540    1.09221182279309    8.67129643255893
N         4.10397892819317    1.22067062510511    7.70178460810281
C         5.41861640404905    1.32877668467745    7.51765153279996
C         5.11667248198752    0.80137254282430    9.76674756609761
C         3.75015312392543    0.93324669933312    9.09223764730599
C         7.43583298823006    1.10290940149119    8.85084950691198
C         8.24024526499394    0.43253307901131    7.93671138197608
C         9.61940686491316    0.51256693278140    8.02802523986263
C        10.16660133743614    1.22560832545418    9.09290071907571
C         9.38417284671783    1.85182940461423   10.05080415521986
C         8.00114059762769    1.79274952697794    9.90892323060016
C        10.53744417237086   -0.11209781956834    6.99097035307757
C         9.77275210724939   -0.91031073991284    5.93232208289183
C        11.53571961715387   -1.05290500196513    7.68010873847142
C        11.28484735165247    1.02223473774906    6.27596242413327
C         9.97284603280931    2.61758666968771   11.22663467386945
C        11.50285339422813    2.57635453017359   11.25393743393812
C         9.45737260015059    1.99924749865185   12.53418671999198
C         9.53670783033654    4.08656512347446   11.13493613168906
C         3.11726779618710    1.34491602192014    6.70541155290829
C         1.91542542821388    1.98296900828873    6.99334874619304
C         0.94373072556461    2.11707612820503    6.01524364129539
C         1.20691856752782    1.60805061313175    4.74559414401666
C         2.39228944842335    0.95816425373554    4.43692158099427
C         3.33957340403182    0.81601805207934    5.44429701971033
C        -0.38592066986169    2.81054103446109    6.27338512573771
C        -0.53316339287889    3.29206253961975    7.71963036547893
C        -0.49721406379257    4.03155150377937    5.34993572679008
C        -1.52985043871512    1.82919116774226    5.98133218651861
C         2.70601517237991    0.42324618655376    3.04941108560599
C         1.51061128438244    0.52062308899559    2.09682695911547
C         3.11867879155869   -1.05226731277398    3.14221793669683
C         3.85966044710806    1.25163023832596    2.46708366726402
H         5.24483783984897    1.51439013812298   10.58437131531042
H         5.30893694433484   -0.20467180239325   10.15271973900315
H         3.15496578668573    0.01740407037839    9.14223274552824
H         3.16541485998631    1.75214934609747    9.51921380363500
H         7.76523853294238   -0.14019095531388    7.16005133041356
H        11.23801788443455    1.28957312395957    9.16662553635622
H         7.36084566124404    2.30774943157017   10.60775800043049
H         9.20255015484768   -1.72066214849613    6.38271593753908
H        10.48026357711359   -1.34726569306707    5.23092835521472
H         9.10389305352695   -0.26499641100504    5.36783946952865
H        12.17575677476155   -0.51901608699454    8.37705051998078
H        12.17127299612377   -1.52826298106384    6.93641824547366
H        11.00585888772955   -1.83012897633458    8.22767787037003
H        11.95938676085269    0.61068238081564    5.52863164784082
H        11.86759414997716    1.61831271798655    6.97350162854376
H        10.57437105234188    1.67495109762055    5.77384539682766
H        11.92286467262821    3.04286486864970   10.36617991329990
H        11.86606556546640    1.55394404835464   11.32900584722959
H        11.86371071927158    3.12498543753519   12.12158347092425
H         9.74180865637314    0.95058022804941   12.59150837967675
H         8.37510551346398    2.06329342584253   12.60691397876829
H         9.88525772315999    2.51985116192128   13.38810238299210
H         8.45639518949325    4.18669340791610   11.19350623657191
H         9.86694436447262    4.51725070171641   10.19229775363877
H         9.97526475541959    4.65884189498782   11.94959206898810
H         1.75902600121147    2.38818530315069    7.97798190646827
H         0.45791809605890    1.72564154841409    3.98225531103989
H         4.26414002480564    0.29661197533092    5.25703824850241
H         0.23009893684704    4.02574027054791    7.96871159533803
H        -0.47503958569309    2.45994603219471    8.41814972902054
H        -1.50425034939313    3.76638428794153    7.84499695290554
H         0.32737216725283    4.71724314511131    5.53265701183775
H        -1.43174661743236    4.55697005856287    5.53452610671786
H        -0.47130156789926    3.74110750977027    4.30369327565414
H        -2.48850892481138    2.30296087954407    6.18105848960001
H        -1.44155031665785    0.94845875415660    6.61427062543182
H        -1.52174975323076    1.50542905453094    4.94471189679104
H         1.78212722405144    0.09494665037739    1.13327735622085
H         1.22288903626174    1.55596903790206    1.93042051418816
H         0.65639614181075   -0.03324904058324    2.48145489268937
H         4.04600163623574   -1.17337929368239    3.69399154260168
H         3.27078876300440   -1.45690828757195    2.14426455196143
H         2.34207157495020   -1.63379712053075    3.63595950710923
H         4.75039022252867    1.19432250897742    3.08682642586620
H         3.57251681978800    2.29827315771615    2.39182464267023
H         4.11402343712349    0.89222210696282    1.47268983347806

