43
CSD_code = WIGFUN | q = 0 | S = 0 | Stoichiometry = C13H24OP2Se2W | MND = 6
W         4.16556340149892    6.59495429682327   14.80676814914335
Se        4.51165849131229    7.63346332835231   16.88504398720517
Se        5.45792137461872    4.77584353356277   14.10754885616218
P         6.13823849921264    8.01672270616917   14.02520493517234
P         2.94652765963352    4.82238579480140   16.27058642240629
O         3.52014529232256    7.54566640654540   13.40581829033903
C         2.53496335412010    6.51968842477056   13.52802356406152
C         1.39247180465155    6.97737257242891   14.33066387054399
C         1.55293714521570    8.09427254934646   15.18061136275529
C         0.54474940767028    8.46598633973292   16.05147263347091
C        -0.64202561745758    7.75103871105676   16.09576371367251
C        -0.82983752942009    6.67762356591792   15.23578618527535
C         0.16897772276775    6.29206569000508   14.36384416446232
C         6.64111885552663    7.77517650266150   12.28476704576771
C         5.98459298209790    9.83224182855534   14.19475887029059
C         7.66388274640583    7.63685000831021   14.95677070625618
C         4.24261378255320    4.09320120320770   17.34362912375714
C         2.26724334112347    3.33544575001591   15.45055995126320
C         1.68558357718017    5.25792520914495   17.52313446186444
H         2.31267442974437    6.07542454467228   12.54053989169598
H         2.43594310071154    8.74325679755915   15.08313238162267
H         0.69000437166938    9.32093547157758   16.69370367053781
H        -1.42417121767318    8.04217246485283   16.77899732906434
H        -1.76668120404974    6.13971803152858   15.24247987908410
H         0.01244042770785    5.46455209846596   13.68508547538802
H         7.50911215140841    8.39353321738261   12.05528354882860
H         5.81178681342427    8.04088140830887   11.62731139911449
H         6.89060224611516    6.72181908178619   12.13496523730998
H         6.90140896602544   10.31800743286224   13.86073667091543
H         5.80582416189662   10.07320959628572   15.24524199504763
H         5.14280953727232   10.18374942155106   13.59580880426053
H         8.49637214572506    8.23443117953867   14.58690173244213
H         7.89433082673006    6.57418376990906   14.83983120777756
H         7.49876403533270    7.85109217919584   16.01588495161426
H         3.79737832879398    3.33504318261248   17.98950451681110
H         4.68742118655444    4.88034687046676   17.96103753930314
H         5.02147633427328    3.63445854227844   16.72778299479966
H         2.01032191845699    2.58792661504418   16.20106212221724
H         3.02730389344212    2.93044770109656   14.77831021841585
H         1.37902626777629    3.59680999184440   14.87674920983722
H         1.48972184394465    4.38846920394528   18.15054559411269
H         0.76222950683092    5.58270131315966   17.04629369055655
H         2.07737363685302    6.07090546266620   18.13845364537151

