69
CSD_code = WIGGEY | q = 0 | S = 0 | Stoichiometry = C22H40F2O2P2Pd | MND = 5
Pd        9.95911061844934    1.36718252172103    4.15392388845694
P         8.35727978225231    0.71423118603347    2.65169509720374
P         9.13110038673844    0.03886793201112    6.23192412607152
F        10.11322813358814    0.53905570813971    7.41130920346153
F         8.10598639290732   -0.70286958279251    7.21049250734823
O         8.41963825093647    1.22962062173285    5.70071545250744
O         9.83728184657988   -0.94508470962805    5.39847513524420
C         9.05633696818084   -0.24350605919127    1.22044885688650
C         9.96148706347681   -1.36152088340442    1.74485365253989
C        10.77443887910810   -1.93525107081565    0.58798416482992
C         9.83418606262902   -2.46928378023072   -0.49146303851044
C         8.89117935456363   -1.37507601195857   -0.98725758633090
C         8.08900099705988   -0.78290833091932    0.17236699164133
C         7.66684076041420    2.30052874916004    1.95243904024933
C         8.63363830897410    2.96326155570169    0.97253173205019
C         8.13496143318252    4.34909206758447    0.56563474644993
C         7.94545781682799    5.23796428655032    1.78940979137586
C         6.95277164945178    4.59297062820080    2.74982564405180
C         7.44825619406483    3.21266184253147    3.16712300522311
C         6.85691732483786   -0.14138720865419    3.36125559510666
C         5.54143598990610   -0.03814592686844    2.58681608741375
C         4.41415564453930   -0.64160940801536    3.42697986058245
C         4.70716864517660   -2.09418069665422    3.78704133253427
C         6.03645032491271   -2.19760182148051    4.52827660477755
C         7.15738316822637   -1.60787816517541    3.67742257830697
C        11.50394714508330    2.37888310916325    5.32262410238288
C        12.05773244391457    1.57799332136689    4.33217827184860
C        11.60085618792341    1.82158602270745    3.00006021689540
C        12.80839167093444    0.31828137302371    4.66914449321627
H         9.71379619219715    0.49162624176917    0.73436671703094
H         9.36577540970519   -2.15974607380366    2.18519845517872
H        10.61407116482619   -0.96472129474390    2.53580533883551
H        11.41193081197525   -1.15699080040428    0.16117129647831
H        11.41990291861469   -2.73905348185769    0.94581038784676
H         9.24608807566642   -3.29203027610085   -0.07915242285481
H        10.41354692721452   -2.86183406204948   -1.32941628834621
H         9.47449247971909   -0.58382470507556   -1.46433433819438
H         8.21082958560537   -1.78513990420797   -1.73659913691663
H         7.46302079686819   -1.56412622656920    0.60431829294343
H         7.43783232014610    0.01405815792397   -0.19375836958408
H         6.71730890177715    2.12120167994495    1.43896233068656
H         8.74373938032932    2.35099111460859    0.07589164657197
H         9.61232678369830    3.05408846377593    1.45217589679285
H         7.18207343208927    4.25133924313347    0.03988314039417
H         8.84931791679072    4.80574023446908   -0.12244209188203
H         8.90488161917439    5.36853667945853    2.29488339755719
H         7.58888717222101    6.22325770751088    1.48368903227613
H         6.82210519370233    5.22038555762364    3.63295177718426
H         5.98080852929204    4.50043473719948    2.25853408377538
H         6.73746287583043    2.75303342035209    3.85780910276411
H         8.41313984582995    3.31788030155594    3.70596386287037
H         6.72483784864300    0.37584551107509    4.32124576200550
H         5.61324701170465   -0.57270708104026    1.63834461870844
H         5.28902427964633    1.00152896048849    2.37614266511599
H         3.47326268314611   -0.57593965695867    2.87528951929938
H         4.30534873179733   -0.06103030233225    4.34559826067480
H         4.75266568262297   -2.69283008975577    2.87343412273443
H         3.90004127482678   -2.49144734584290    4.40531836268753
H         5.97886661441331   -1.65614303696132    5.47432429551822
H         6.25813786184084   -3.24174766815179    4.75642971783034
H         7.22731767647528   -2.18118951317804    2.75030757143884
H         8.10480635969632   -1.68297874254128    4.21257555084014
H        11.72074513662365    2.17087943110836    6.36429837646402
H        11.20680084873327    3.40868429842060    5.10072012426327
H        11.97080182937124    1.16796593675150    2.21497644823186
H        11.52002956589564    2.86210661615554    2.68740563049049
H        13.50588439212361    0.05937976499125    3.87411113488632
H        12.09847657574509   -0.50935028017196    4.79572316278666
H        13.35554784897900    0.43508921372597    5.60241101048892

