56
CSD_code = WIGJEB | q = 1 | S = 0 | Stoichiometry = C15H33MoN4O3(1+) | MND = 6
Mo        2.22737671399337    1.53868001178328    2.08380396312361
N         3.66496489088824    1.73982941251997    3.79061327847339
N         1.93010145297696    3.87963740179033    2.84343949485149
N         3.87661672083522    2.64827694211628    1.05869441883381
N         0.38155879204976    1.45942575132415    2.08558201540293
O         0.81827275498964    1.31464561859709    3.32314683184510
O         2.70979248952711    0.37076644100009    1.04001341522208
O        -0.70361028915022    1.07913840048589    1.71787686469286
C         3.12141288805552    2.74793919129849    4.71849160464417
C         2.76341346633748    4.07527357968907    4.04383350283288
C         2.48242411077299    4.61702679644292    1.69464775798872
C         3.84907904077999    4.11231614056702    1.23850524882708
C         5.05549090852405    2.06070810946735    1.73340518242516
C         4.98266039787493    2.14768778682432    3.26413725712027
C         3.71884482711288    0.41702441268793    4.49365189162946
C         0.51693357596580    4.36643206030303    3.05829134220189
C         3.93102370134354    2.29803603826815   -0.40659220875237
C         4.24963908196467   -0.68794097112199    3.58482355479394
C         4.51675989608001    0.43920541647244    5.79998742007078
C        -0.13455123857867    3.84322330490702    4.33972893308344
C         0.39050172163932    5.89589785906149    3.06569352941495
C         2.65734737990971    2.74287697787008   -1.11782966764124
C         5.16401608441312    2.81697386086388   -1.14651862827192
H         2.21745418582229    2.32342569991485    5.16498816898871
H         3.83785214591024    2.96055724372497    5.52198878681233
H         3.67068943782755    4.62767006496167    3.78430648899970
H         2.24139755769253    4.68427398237732    4.78633015099742
H         2.59543310008987    5.68369492924858    1.92734154980686
H         1.76722282891474    4.51628995204885    0.87449554084952
H         4.08013031459392    4.62001528512750    0.29926618273649
H         4.62497764054903    4.41623800764938    1.94597577881115
H         5.10281322682616    1.00943288570422    1.43184463467000
H         5.97609364162698    2.56232277849240    1.40666440480809
H         5.21128539795573    3.16382892798596    3.59851010652541
H         5.77210468592630    1.50662599870338    3.66641613685035
H         2.67356163221514    0.17731433657776    4.73254707840263
H        -0.05488335110361    3.98093397063249    2.20401916325202
H         3.94954657681802    1.20307923610833   -0.43516857819590
H         3.73551080191992   -0.69623341027477    2.62278252844887
H         4.05949206241301   -1.64649515203216    4.06011865017110
H         5.32311725627163   -0.61198365403625    3.42691234847107
H         4.02556184251342    1.02139645865928    6.57429114563699
H         5.52619452964293    0.81961500002194    5.66161765294374
H         4.60013403504040   -0.57909197161852    6.16847056371021
H        -0.00641744416476    2.77267754043376    4.47418403340747
H        -1.20336636193108    4.02902999113313    4.27116383284386
H         0.22948081189391    4.35874844970640    5.22535952941470
H         0.50803931218059    6.33230586277830    2.07836538022587
H         1.10318191301924    6.35722698233563    3.74639927609546
H        -0.60572558087045    6.15519685668998    3.41178174650058
H         1.77748334324234    2.36928697614250   -0.58657842124277
H         2.64580265995685    2.30717350604740   -2.11296078336662
H         2.60132667217182    3.82288343264856   -1.23189551622244
H         6.09037598021939    2.42919986928210   -0.73350083958206
H         5.22171440382454    3.90215242997810   -1.18077864812691
H         5.10234537268694    2.46832698962788   -2.17358507645595

