55
CSD_code = WIGKUT | q = 0 | S = 0 | Stoichiometry = C24H22O8W | MND = 6
W         7.41319993998106   -1.67655125132694   13.89733060632866
O        11.01477252280732    2.12759819275368   17.93948961232829
C         8.15922471059437   -3.46507133706837   13.39715136463060
O        10.46222333151158   -0.97627241288813   14.25029262217506
C         6.64084341194779    0.08229704431815   14.44656451485526
C         6.75509889967409   -2.44930697847871   15.62210887267724
O        10.06449886324742    4.22004624730332   17.57567203024174
C        10.49148812961901    0.14014727983597   16.73606273662464
H        11.16505427119284    0.42003347364015   15.92429327441461
O         4.65285236752689   -2.51449763589158   12.64635159485519
O         8.54088841714375   -4.51028161751143   13.13648038272806
C         9.93637756366329    1.43397992783698   17.33174998514885
H         9.18426268823757    1.20825194771050   18.11090103426142
O         6.21933926216368   -2.88104083173896   16.53337253637157
C         9.37653808415799   -0.81706422695999   16.25126629461760
H         8.40339473446289   -0.49236272029073   16.62955727172576
C        10.60427474962616    3.34142107854426   18.52031884398622
H         9.82173249816276    3.11455782746648   19.28452155156440
C        11.99156677696445   -1.74666436915551   16.94460918475996
H        13.04463107326270   -1.71600172345053   16.73586412315165
O         6.17661601511122    1.07080755469755   14.78227095807874
C        11.08365964583548   -2.59361519437186   16.47510611474204
H        11.22246643478088   -3.42091020087607   15.80302369596838
C        10.70438402544507   -1.28891277961302   12.89411932945739
H        11.78690625991742   -1.35379385948241   12.78497679370873
H        10.32213119987574   -0.49549183801335   12.24725547139354
H        10.24230006176305   -2.24026329537975   12.61660749858518
C        11.81056781566180    3.95568798397351   19.18653631855122
C        12.48094303282810    5.02231669041786   18.60846803050071
H        12.11349176513821    5.43106975114665   17.68118694129612
C         9.27544149346655   -1.09487665754824   14.77959708966800
C        11.26521568502696   -0.72004998758686   17.77307973128653
H        11.86677417120492   -0.12707764364463   18.45448240804554
C         9.74351212384126   -2.15494621199647   16.99662985590987
H         8.94930842469031   -2.89632281050344   16.96947057849746
C        13.59828140194491    5.55434362237872   19.22864974084903
H        14.11493806708694    6.38921687586400   18.77839852839712
C        10.14490766839508   -1.58430249811807   18.35880696814736
H        10.51828815214174   -2.35080181610244   19.03615899013406
H         9.35433448962674   -1.01912904864082   18.84771671524963
C         5.65287168744755   -2.21126272454459   13.10530855945366
C         9.29342143063833    2.33417887408795   16.27066495651294
H        10.02033580929184    2.51495076141978   15.47694079995158
H         8.40519793312209    1.86877380541255   15.84737629763008
C        14.05577638900465    5.01817068561366   20.41991728355731
H        14.92844351030223    5.43395992380536   20.90197390663151
C         8.93592803109346    3.66412502136135   16.93511147580095
H         8.60966919975995    4.40546341924087   16.20401811620857
H         8.13219436065441    3.50678127532961   17.67315524987086
C        12.27143177427284    3.41689576179020   20.37999288378816
H        11.75071240110207    2.58108252475109   20.82422046152390
C        13.39224232019992    3.94631363411961   20.99343534874645
H        13.74689039188126    3.52400507886620   21.92219207594593
O         7.83879209852910   -0.50291832755679   11.02320741239688
C         7.80676243284399   -0.90938626494115   12.09158497604001

