62
CSD_code = WIGNOP | q = 0 | S = 0 | Stoichiometry = C20H32N6NiO2S | MND = 6
Ni        4.88843234803703   13.42090547402023    3.54154217409875
S         1.93591658523195   16.36157430151729    1.86119869493726
O         2.68865999088012   12.44346992071722    3.26950889066984
O         3.58920798146909   13.64859574232971    4.86091860082650
N         4.17843389590056   14.95192192795352    2.62103170532898
N         7.21574401857398   13.28889697380897    0.23940462199391
N         6.04306829333628   13.13410164289739    2.07058973920772
N         7.09491520735826   12.66464259616910    7.06610518477756
N         6.25419296626724   12.90722525087632    5.06850711542574
N         5.27236113597091   10.89400237388950    3.45912415329692
C         3.16987031036176   15.49001926991980    2.32695589157964
C         2.58863010812977   13.06889825828834    4.33056690126658
C         1.26373067863930   13.18535464190998    5.06046116569233
C         6.78771513744911   13.93968944116011    1.34251362080542
C         5.98307158211718   11.92823654181998    1.41779340034933
C         6.71406102871074   12.00760231540067    0.26627736523260
C         7.13686911066959   15.34616791600378    1.67818440449803
C         7.87719984981364   16.07610143351376    0.56369963328421
C         5.21737204672452   10.79078985902638    2.00870197235967
C         6.98162353673242   11.03270019683055   -0.82197457807107
C         6.45582163233735   13.50584269078370    6.21845579207133
C         6.75872799255714   11.63922955031121    5.17314084047160
C         7.28732912916040   11.46251879869651    6.42023981256351
C         6.04276881430425   14.88734880354255    6.57942980649158
C         6.29365376540774   15.85727955472448    5.42799901614929
C         6.61755684759722   10.72071339464195    4.00301866251797
C         7.95914417723992   10.31225785599359    7.07755899047145
C         4.29024557291513   10.06099823519503    4.14101335283163
C         4.36552853149346    8.55218811668926    3.86444852849484
C         3.35028572829213    7.80588516513889    4.72045516973910
H         1.42680207635513   13.25978995763601    6.13208984615709
H         0.77219209629925   14.09331597427377    4.71654927551360
H         0.63274114764453   12.33371669991580    4.82352771307613
H         7.77394541225819   13.68170203497317   -0.50016986280136
H         6.20237961630652   15.86275716543741    1.91445239062776
H         7.73860322599439   15.34385057678107    2.59091378805861
H         8.84151547759735   15.61383364403721    0.35586335492400
H         7.28382908418518   16.09266741790440   -0.34797467442426
H         8.05813556737905   17.10501313825884    0.86217795469826
H         4.16475432833686   10.88243401178883    1.72234533341099
H         5.61577726495808    9.83490084019038    1.62538510615292
H         6.40407424032783   11.28089014493960   -1.71282247471295
H         8.03817069463251   11.03311230636959   -1.08886722264258
H         6.69980649092266   10.03348723875216   -0.50311291080784
H         7.35623283241465   12.86346580802682    8.01845409534726
H         4.96864182887806   14.87265366120321    6.78178465585752
H         6.56804874301262   15.20124167177692    7.48578945192129
H         7.35572599996290   15.92471836092789    5.20168257170633
H         5.75571324902646   15.49332430071107    4.54522963405693
H         5.92192980177471   16.84603137392327    5.67985579040111
H         7.34817944796993   11.00671758807384    3.23913368155617
H         6.83021084162775    9.68452078757313    4.30110769614070
H         9.01395134626798   10.52588957028154    7.25428812820304
H         7.49171603950781   10.09169587460871    8.03701945538265
H         7.88884879997329    9.43164489592930    6.44601747302200
H         4.40833205912909   10.23831427100932    5.21411995272067
H         3.30263446679375   10.42068226738223    3.84787744579004
H         4.15320300545603    8.36018940644495    2.81130029946791
H         5.36550932297907    8.16694620967245    4.08020636870409
H         3.55443211125443    7.95923420419476    5.77789998640911
H         2.34606048892194    8.16596548569323    4.51219838337715
H         3.38276488816601    6.73803486753120    4.51520668333886

