57
CSD_code = WIGPOU | q = 0 | S = 0 | Stoichiometry = C20H22MnN7O7 | MND = 6
Mn       10.35823396029974    5.87076489420412    5.55961687691356
O        14.11323425266201    3.11599542498384    2.04465035408713
O        12.55874607395845    3.05303600128241    0.42387687981405
O         8.51030799775398    2.30807172515258    1.93640130802708
O         9.02016181907684    7.93720233731523    7.15083885411118
O        10.44463518797008    1.30844446441074    1.34958348383081
O        12.18976825808299    5.44966796579701    7.79485203174664
O        12.54620566737253    7.77650455948639    5.23002905336070
N        11.04943848925159    4.48784224309893    4.33967759708056
N         9.27097355826674    6.35925992618670    3.71593023803969
N         8.87517248505723    4.35635798833390    6.06393225596472
N        12.15529724995722    4.38343018675407    3.64561087750444
N        10.08195932524955    3.74280366365074    3.85895098703315
N         7.77427824549799    4.23992513321733    5.29528191951071
N         8.08024828975244    5.76703605373922    3.48915393913571
C         9.51075616790400    7.11080624416967    6.51400311592217
C         7.25848070658142    5.38588025575030    4.60262487434176
H         6.25138329024409    5.16522341589486    4.24495265951979
H         7.23259858954347    6.23090130575174    5.31082106086232
C        11.66847661842958    7.03526448488145    5.24872430637086
C         8.09200022125028    2.27155650877371    6.17821993638668
H         7.99735070858272    1.23972137100609    6.44741449209125
C        12.86202000377471    3.20450079860308    1.58348705843428
C         6.14238306650519    2.51600570632747    4.49677346739581
H         5.29073114822642    3.19257469184307    4.54911608480379
H         5.82726853329162    1.53502530928816    4.84088332339619
H         6.46568999918728    2.42672479640089    3.45908606534902
C        11.42247609057433    5.51463152741713    6.93950051511786
C         9.72060694871757    2.22312872049763    1.99159537597662
C         9.07701542557316    3.16570369504382    6.61735520395312
C         7.28419107881906    2.98052704200814    5.31872922518447
C        10.56333573911379    3.11338451406487    2.78529704478087
C        11.90852583394877    3.52311076279595    2.65142087848041
C         8.89376826572915    6.24236347725608    1.52135899698838
H         9.03369032822991    6.34043948606266    0.46473040735761
C         6.63105336093100    4.99634256791535    1.59380093383024
H         6.77394401808825    3.91650747758314    1.64514651789585
H         6.53034974945729    5.27551491207300    0.54874597011483
H         5.71436473940845    5.26335088458973    2.11681379438347
C         7.82246264303228    5.66534456465745    2.16535342435216
C        10.17780076058022    2.85868974279469    7.56559845720924
H        11.13702651716283    2.85355497558958    7.04824257069074
H        10.01755719583812    1.87791341942591    8.00626849853229
H        10.22046744120588    3.60384279069463    8.35810980786778
C        11.07772003589254    7.34840884681629    2.31489422506081
H        11.90726109154243    6.70407880387172    2.60850720300502
H        11.12712537346261    8.26021797624458    2.90794604906438
H        11.18979011152323    7.59888167932072    1.26306450560417
C         9.77903934312600    6.65979734011638    2.52411055418343
C        15.11290179313697    2.84243044091505    1.07699124319067
H        14.86007638240836    1.94069332070207    0.51428889421803
H        16.03961602616603    2.70498100891972    1.62799732833117
H        15.20362357688837    3.67732916007035    0.37844115252365
C         9.77831207521997    0.43018177109969    0.45716024236948
H         8.70556801730201    0.63438497205791    0.46278232777938
H         9.96853077155813   -0.59419772187401    0.77872726758587
H        10.18959935162373    0.58963438491292   -0.53987171665516

