43
CSD_code = WIGSOV | q = 0 | S = 0 | Stoichiometry = C17H16N6NiOS2 | MND = 6
Ni        6.81646915231765    1.55189272699353    3.36775717097837
N         7.84123682439036    0.31706346381538    2.15996574424881
N         8.61203848509233    2.92400070668357    2.68414539389739
H         8.30621640608163    3.58119275670418    1.97325539104959
N         7.79524467140675    1.07646004015111    4.95923903773730
N         5.41581375094156   -0.05370714548630    4.15484733198396
N         5.83540820547983    2.02348035818583    1.90738045170397
N         5.95509748155237    2.86873538857583    4.36078219761108
O        10.33429340901058    1.57904736780204    3.35266503690062
S         4.22473942644301    0.90949493820671   -0.03730638064906
S         4.28868742064683    3.02013910454425    6.55557650478126
C         7.28339797298426   -0.79337621939777    1.68936091352017
H         6.38287912157388   -1.12723749652812    2.18654607322570
C         7.80147355461311   -1.49837808430163    0.61675662312037
H         7.30325843632375   -2.38739555704987    0.26491750906911
C         8.95397674170555   -1.03220939973371    0.00679849767300
H         9.38222131410638   -1.54714523997375   -0.83972090947061
C         9.54682914894124    0.11369271833711    0.50918601874751
H        10.45147990138836    0.50998100777980    0.07505920961299
C         8.95712835769676    0.76141295851219    1.58427835327602
C         9.60535972247690    1.98438805790156    2.20317763791253
H        10.32452786393128    2.42872097813794    1.48498120101229
C         9.21208474245709    3.56211237214636    3.84489033532014
H         8.43975712311204    3.98357103321948    4.48730852118772
H         9.94229486203283    4.33894880806273    3.57199340841203
C         9.92949819830247    2.36255003895395    4.46480057525212
H        10.83925891040125    2.65657168449623    5.00261621139009
C         9.06930600929739    1.55766477971169    5.45311352074258
H         9.67324175607810    0.70794594783069    5.79856317639739
H         8.87642315773074    2.21149736977976    6.31296036517760
C         7.18433667272202    0.24300965912582    5.71077568739613
H         7.62525946563535   -0.09354703288417    6.65208654083397
C         5.83988156819464   -0.21697130321647    5.41825929737918
C         5.01623218929030   -0.71721657398938    6.42572377982308
H         5.39508230584479   -0.83285957642682    7.42945789010446
C         3.69982232769943   -1.01357653896251    6.11972861820380
H         3.03017844714747   -1.38212870721480    6.88191447681427
C         3.25702413667583   -0.81429685827588    4.82095567777835
H         2.23637491925687   -1.02280254922764    4.54292290687111
C         4.15561463933418   -0.34475789399953    3.87287441162798
H         3.85098198127268   -0.19232240835224    2.84537140052951
C         5.13346753490712    1.50842711017147    1.11106430232277
C         5.21620168350513    2.88712720919253    5.28096988849095

