87
CSD_code = WIHDOH | q = 0 | S = 0 | Stoichiometry = C43H33Cl2NNiO2P2S3 | MND = 4
Ni       -2.51693689223593    4.62012155459537    4.93780534275675
P        -3.28845199826453    2.96883566368667    3.69485393813258
S        -2.42426863432157    6.32727015582327    6.34647315203180
S        -2.98926211014277    3.64111018197536    6.85258162911091
P        -1.31966431161145    5.70373239134165    3.45197364421039
S        -0.65436652840646    6.34217294676848    8.97129731837693
Cl       -3.39189696485084    6.68049645439957   10.44458361401928
Cl       -1.45460663383807   11.20718109152777    6.68572058962742
O        -0.32041067173220    6.25142306973449   10.35669431363926
O         0.43043339212825    6.43009188008924    8.02999007505057
N        -1.59330369528217    5.06357674017018    8.58335285874757
C        -4.88948248603865    3.66596274348859    3.18453389684503
C        -4.92883880044162    0.76093208109087    4.36376742095873
H        -5.70958782244905    1.22159521180058    3.77733028711990
C         0.09939706336014    4.62676632196978    3.07389170861106
C        -5.30535106774339    4.79231191506520    3.89131796565567
H        -4.66197696302097    5.18519079728800    4.69447226777193
C        -2.21585671415398    5.03095322801326    7.47411449968181
C         0.21026660710391    3.45990426680172    3.82340203410935
H        -0.55542437832830    3.24482253112431    4.57677872840411
C        -0.43036114562256    7.21444747548931    3.94060734393192
C        -3.69443400997670    1.38337294344998    4.49927061337988
C        -2.77496058600269    3.07866726552017    0.94304759368822
H        -3.48916093923466    3.88833880979486    0.92091961614409
C        -2.52283046440028    2.41128419725654    2.13720536715925
C         0.50827151796753    7.07495925906235    4.96075467780159
H         0.66557430118766    6.11431657023025    5.43295421142501
C        -3.34345713911218    6.84795529504518    2.06420362305608
H        -3.69853551429487    7.03400147585750    3.07110543599527
C        -1.59851046511162    1.37002245408813    2.15278256416309
H        -1.40408231968848    0.83946748377727    3.07321120251993
C        -1.19777337837612    1.66972903816415   -0.19263695809961
H        -0.68300740915486    1.38266567066077   -1.09730700342572
C        -5.16528030563096   -0.44632846596549    4.99765840375061
H        -6.12763746102257   -0.92533114623109    4.89177395481230
C        -2.12887186334540    6.18357009313273    1.89586202890469
C        -4.17978472816534   -1.03656084334753    5.77084070869713
H        -4.37218891241687   -1.97659248743387    6.26607634606449
C        -1.66017082913507    5.92370506792084    0.61575787709810
H        -0.73995738410589    5.37964272571868    0.47047998770475
C        -2.95340237184682   -0.41089351814423    5.92270720672171
H        -2.18956433958456   -0.85851711463069    6.54098472198639
C        -2.71320093545824    0.79667632807805    5.29533967538439
H        -1.77004563130430    1.30499825777656    5.44333167362250
C        -2.12038723769637    2.70178402352761   -0.21561839155950
H        -2.33131055539893    3.22071990724160   -1.13898516576261
C        -2.87623208492022    7.95315464532455    9.42044697967421
C        -7.30287109460106    4.88901058683840    2.57680034158473
H        -8.24335455193735    5.36196845356087    2.33605560979338
C        -0.66494712105659    8.46397729044587    3.38053176735434
H        -1.40262543042191    8.58151419498039    2.59935490858000
C         0.05092382859492    9.56038517103484    3.82971815063140
H        -0.13365876735015   10.53263913408818    3.39671190659376
C        -6.50828849251174    5.40253827625101    3.58931194810835
H        -6.82749912449230    6.27511469025586    4.13939329291184
C        -5.69106243621535    3.15409294904950    2.16841547967824
H        -5.36939872259155    2.28625765307480    1.60942666238891
C         1.22019964271029    8.17293719700324    5.40208443650023
H         1.93563298547180    8.04907070368631    6.20082731534074
C        -4.07632203861585    7.25628776563023    0.96733722050070
H        -5.01824230405343    7.76618371958766    1.10439854236200
C         2.25457119965380    2.92277430745512    2.70547145506587
H         3.09065232429769    2.25719060849008    2.55112597350715
C         1.10879591719362    4.96820958518378    2.17987801409119
H         1.07209416446742    5.91360875650882    1.65731383793409
C        -3.65162007577239    9.09409385541568    9.24513681509264
H        -4.59295224112919    9.18304361845534    9.76280691884654
C        -1.66996717778480    7.82920462082501    8.75274863494311
C        -0.94074309504782    1.00297525139573    0.99418907426720
H        -0.22574490935059    0.19398319419024    1.01587257766117
C        -6.89425817035644    3.76879623428337    1.87002232415335
H        -7.51737793212869    3.37190159430756    1.08193522332515
C        -2.39466990701192    6.34316555770329   -0.48127716414993
H        -2.02505514540681    6.14689481929215   -1.47717517223632
C         2.17289436333983    4.10567786692600    1.98760721586067
H         2.95090057419650    4.36293745517210    1.28386811952291
C        -1.21543180655960    8.83279220914657    7.92106022741247
H        -0.27674133001782    8.69234719466117    7.40826723219695
C         1.28278342856764    2.60788555444433    3.64098928257931
H         1.36932671598461    1.70592134160392    4.22847686023127
C        -3.21054343612666   10.09810375666361    8.40279185481365
H        -3.80763664990885   10.98407586970322    8.25310478633886
C        -1.99504388215520    9.96284055459907    7.74350839614120
C        -3.59848390511925    7.00560446253325   -0.30997070431361
H        -4.16698698018901    7.32329972329364   -1.17131716931831
C         0.99274718776673    9.41792550397203    4.83513822739907
H         1.54119619808387   10.28046208084426    5.18414999626173

