62
CSD_code = WIHLOQ | q = 0 | S = 0 | Stoichiometry = C23H29BClIrN6O | MND = 6
Ir        4.13462789849786    2.94687442900849    9.80758786280687
Cl        2.08137874912850    3.78479829598380    9.12612989801514
B         6.79898603082785    3.11508981324156    8.09527562397390
H         7.80644004129298    3.20678570426175    7.49433493748816
N         5.99457617953210    2.12089851389178   10.26046964171760
N         6.99761656310803    2.29719823007966    9.38369263178528
N         5.11478127529055    4.64901115547273    9.18563143401237
N         6.26550992790733    4.49881867707860    8.49648503713011
N         4.50479521233117    2.20865658215610    7.82588865361057
N         5.71384873232528    2.41717963310436    7.27648387217612
O         3.06680428109268    1.26601538742428   10.40037133500043
C         5.61564928621440    0.88195482953891   12.39593433804636
H         5.23559084289915    1.73812194201474   12.94856547475639
H         6.22580146773937    0.27273393747567   13.05780660594467
H         4.76381015289866    0.29428491928931   12.06057846208236
C         6.43021583501909    1.32260500926959   11.23465104610571
C         7.75750856919823    0.98139835158186   10.97263929851220
H         8.38968623447175    0.35402949797021   11.56714121380796
C         8.08230711449995    1.61577146478074    9.78777609233623
C         9.37148316089176    1.58697137155173    9.04988626746086
H         9.23924998825225    1.14921393129581    8.06221312193216
H        10.09152763101649    0.99126196510816    9.60423725361785
H         9.76708834449522    2.59277911956779    8.92349383050799
C         3.66946530724481    6.57301032300783    9.92352175530485
H         2.93891158375973    5.81931272461025   10.19315745569327
H         3.20581430851886    7.26906318586189    9.22714276909971
H         3.97300342438901    7.13382897390013   10.80652673916328
C         4.85298225894928    5.95481161496807    9.27280320577052
C         5.87647121103088    6.65783912623330    8.63264909821314
H         5.95542641558749    7.72097517314571    8.53234830922564
C         6.74966704672020    5.70410084391132    8.15037170684687
C         8.00754127724824    5.91162418831851    7.38702309754178
H         7.93497501925886    5.46732510696719    6.39621788345368
H         8.85142101481639    5.45616315506955    7.90147508871718
H         8.19182460792164    6.97718251162870    7.28071066561699
C         2.36780611431156    1.10786117546681    7.22594734257849
H         2.26305906257295    0.80953159720381    8.26615674802209
H         2.09530186172755    0.28099308839920    6.57394714795692
H         1.68494681764996    1.93842445216169    7.05021649205911
C         3.76417550211112    1.53039658981252    6.95871010462255
C         4.52205076501065    1.30020513034388    5.80476900444784
H         4.20845235229876    0.78224140552953    4.92114870739915
C         5.75404122900899    1.87691417432991    6.04376971803942
C         6.94594867117728    1.93329551891433    5.15724945607508
H         6.71950231017529    1.44235542629845    4.21469456723539
H         7.79613397294625    1.43343571246535    5.61876893406752
H         7.22836186511349    2.96561080463754    4.95750848552736
C         2.40230956449313    1.49230150370365   11.46264046625354
C         1.42615351311897    0.58613748474134   11.95340420361413
H         1.19289268655360   -0.28684096252391   11.36282147789176
C         0.79614110171260    0.83955171294219   13.13675583191641
H         0.04461135350283    0.15369771144207   13.50121282492660
C         1.09735889474774    1.98562477655611   13.89977222579097
H         0.56843770973370    2.15334882603861   14.82606523425146
C         2.03332321002660    2.87758933192384   13.46751071695761
H         2.24402259777095    3.76681145758981   14.04263665835206
C         2.70612372043429    2.67184226835326   12.23629083791130
C         3.69664866738506    3.48109750448725   11.66858476863520
C         4.27680469703807    4.59129169688931   12.47876662690595
H         3.52374882792552    5.36537090285114   12.62732618001826
H         5.13843451061748    5.03663092382481   11.99038338198238
H         4.57652142646146    4.22879009684702   13.46302014908844

