59
CSD_code = WIHMOQ | q = 0 | S = 0 | Stoichiometry = C26H24CdCl2N4O2 | MND = 6
Cd       10.06429490002703    0.00000118331985    6.21676092006854
Cl        9.11653267847405   -2.16793496121764    6.58814186259731
N         8.43588736896725    0.91230736360187    7.72390445116830
N        10.37442777363430    0.36017296914782    9.85191941808605
C         6.25155137327191    1.85221200075289    7.60855599332599
H         5.54163312644689    2.45959168939552    7.06990725428565
C         9.21476082261066   -0.45663956989836    9.55318201176425
H         8.84795189996790   -0.90710498115841   10.47935255214570
H         9.53249099662652   -1.24859066354755    8.86197488418853
C         7.52835506502602    1.65514181144305    7.10544837309051
H         7.84335516091152    2.10576478354997    6.17266544541196
C         8.12392308310868    0.34091861078147    8.88578726104574
C         6.86714241968944    0.48632742532440    9.46177667015776
H         6.64170772017742    0.00493896031962   10.40140967362701
C         5.91216018121224    1.24620200293122    8.80702277988851
H         4.92483398237669    1.36703903925529    9.22865116351349
H        10.26987272121470    1.05575022878471   10.57509993957141
O        11.60645577000837   -0.27376036246124    8.06133910060321
C        13.26469223758293    2.04351381082472    8.56865759853175
H        13.01225999110813    1.91744745997486    7.52634384625259
C        14.26614757742826    2.91325396229896    8.95987941421899
H        14.81821447595199    3.46407660105896    8.21355901763866
C        13.84916720424435    2.36998344184449   11.26011602123896
H        14.08575194209454    2.48901347795636   12.30746108145402
C        11.47007607907275    0.41710126593186    9.06375103749254
C        12.53566124333578    1.34617150195454    9.52755401680249
C        14.56011010219948    3.07694139363439   10.30353121638114
H        15.34554195036326    3.75290988410937   10.60848700333310
C        12.83555106559079    1.51030942209615   10.87747469047843
H        12.30021935092720    0.94513675664998   11.62775285291736
Cl       11.01197643059731    2.16782708127041    5.84529691840481
N        11.69265787346590   -0.91231367736981    4.70960926016971
N         9.75408942427237   -0.36014842092561    2.58156554125553
C        13.87697310257231   -1.85225270805864    4.82489320917599
H        14.58689973288320   -2.45963492492351    5.36352780913851
C        10.91375178017453    0.45665064773637    2.88036070041087
H        11.28056342367685    0.90715957743305    1.95421360456045
H        10.59601818095825    1.24856610232439    3.57160949824745
C        12.60021615987641   -1.65512191684009    5.32805917804854
H        12.28519977302210   -2.10581902988190    6.26081369139219
C        12.00459409325962   -0.34092892806105    3.54771915604954
C        13.26135572429543   -0.48634738927945    2.97169908095912
H        13.48676970060793   -0.00495697266945    2.03206413654223
C        14.21633630055525   -1.24625262340751    3.62641637713517
H        15.20365748110725   -1.36708401431243    3.20477031175148
H         9.85864153337318   -1.05567128926386    1.85833163187268
O         8.52207176085056    0.27365791411630    4.37219774236963
C         6.86387953198103   -2.04360345314794    3.86479188776120
H         7.11629392490624   -1.91753256045972    4.90710027869665
C         5.86237997029152   -2.91328907669417    3.47355577188196
H         5.31029330665364   -3.46410098856373    4.21986314141613
C         6.27923600980961   -2.36982921499401    1.17332482071853
H         6.04270047745654   -2.48889191078935    0.12599040426024
C         8.65844273372665   -0.41712413466928    3.36972959300445
C         7.59287466537464   -1.34620232580189    2.90590638720807
C         5.56830608194140   -3.07682414625107    2.12989482147622
H         4.78290738972533   -3.75282269793272    1.82492799248472
C         7.29292819235253   -1.51024976628592    1.55598246875148
H         7.82825497658080   -0.94505566095701    0.80571703357670

