62
CSD_code = WIHPAE | q = 1 | S = 0 | Stoichiometry = C22H36N3Pd(1+) | MND = 4
Pd        3.86488686167951    2.66897369933296    1.16285663126034
C         4.54902955347182    2.86418433403544   -0.72824738714013
C         5.77427849768992    2.42035359761840   -1.24348155062802
C         6.05988981076215    2.59282049615724   -2.57266800288680
C         5.14679427264350    3.22101868695644   -3.44103735288181
C         5.45595252626784    3.43701667806048   -4.80069672497081
C         4.55408117724447    4.03193927408235   -5.63584861676522
C         3.30341153578849    4.43628656682313   -5.14505505395256
C         2.97056459412259    4.23847735077055   -3.83405181876711
C         3.87838427614462    3.62554978695006   -2.94278280428211
C         3.59906731019422    3.39529425486797   -1.57209608931208
C         2.26306094475801    3.67179664762434   -0.92701989004061
N         2.05696627996030    2.59326590020170    0.08270819310591
N         3.22642473681306    1.85215662647119    3.31996243841063
C         4.49707717821364    2.07399427999629    4.06554558859484
C         5.22443576259037    3.32975824284970    3.52233613646532
N         5.70165714742500    3.07353872108526    2.13745973918794
C         2.31613142102263    5.05838834278599   -0.27961153395859
C         0.84190628514388    2.85290955478112    0.85577316053859
C         1.89327647508690    1.30554347652610   -0.60566945001509
C         2.03585543641377    2.22648492972821    4.08728724754219
C         3.10744870524228    0.43445919098202    2.94608433415081
C         4.38534077880191    2.11419747017877    5.59209050472813
C         4.32437335407560    4.56623322383370    3.58496885771385
C         6.70950466823743    2.00044509945930    2.13746556573443
C         6.33511736752138    4.28479503646130    1.58931614734737
H         6.49334653532877    1.90805230317462   -0.61854866389016
H         7.00061622827958    2.24402314159148   -2.97313325685028
H         6.42311445288411    3.12489071797212   -5.16585782945662
H         4.79558162922358    4.19708233140426   -6.67440132330668
H         2.60127814772571    4.91099949704785   -5.81357579350040
H         2.00785323557721    4.57075476384789   -3.47720217261423
H         1.43656015984299    3.63427030105508   -1.64959371618732
H         5.13939128252912    1.21516312156661    3.85015209838771
H         6.10263189121989    3.51165538851025    4.16377224604996
H         1.34845785632845    5.38390229488131    0.09333041376089
H         3.05122217363150    5.04969538811897    0.53908576649062
H         2.65047649736123    5.77729758158978   -1.02406457638528
H         0.01105782708389    3.11785376576663    0.19122949600582
H         0.55207966495209    1.95507743673093    1.40079536112307
H         0.99822773725800    3.66731614490089    1.56477415307082
H         0.97100059445002    1.30103591594005   -1.19859325436188
H         2.73438751012568    1.11801822046780   -1.27316744009196
H         1.84031648137159    0.49671531172411    0.12457516752250
H         1.91399596281765    1.60694613425887    4.98133830996730
H         2.07721559818938    3.26988655236933    4.38601602614227
H         1.15003831219413    2.08762733414097    3.47169115937749
H         3.21410837554977   -0.22772769200084    3.81499492583561
H         2.12198364985942    0.25302968130610    2.51468688317868
H         3.87007204225576    0.17005332427911    2.19921531593249
H         5.38526747856145    2.17861834822822    6.01395108546382
H         3.81138813564952    2.95879623391766    5.95926478311000
H         3.93349324159740    1.19890213063342    5.96592616163781
H         3.87905452445907    4.64283825250754    4.57265168461860
H         4.88995104326691    5.47948239443724    3.42402410427534
H         3.52403267771977    4.49687003863292    2.83429919510928
H         7.36879325612680    2.08136337919153    3.00869892408457
H         6.24785289794146    1.01224392993126    2.12721806979277
H         7.33416560198827    2.07973920023269    1.25103235167981
H         7.12092851002277    4.64630771454393    2.26261053414222
H         6.78154739875353    4.06099599744677    0.62150363177117
H         5.60149443037517    5.07574195113688    1.43211190892409

