43
CSD_code = WIHPEJ | q = 0 | S = 0 | Stoichiometry = C14H18N10Ni | MND = 6
N         2.64086519674334   14.23470932465561    7.97218863795812
Ni        1.83574612868645   11.69948681284565    2.55121732186611
N         3.38897486410233   11.33995665246551    0.72237852795873
H         3.92671381301492   12.09778675247292    0.31491377526640
H         4.03832782262381   10.76085632810346    1.25264248462225
N         0.88817096213652   13.26122862519473    1.69155459374108
H         0.02514086525957   13.39038817966328    2.22084767773797
H         1.39590645703650   14.14307808046191    1.74496300833043
N         2.62111309858255   10.20533334092223    3.25777559100194
N         2.78833911308877   12.82078778199845    3.65060821201788
N        -0.16017860089256   11.13221646515713    3.80931979582123
H         0.16582061338041   10.44939078307471    4.49153108373949
H        -0.64794322134388   11.84992338239475    4.33923370279758
C         2.44157534560024   13.47488226198583    4.56235031040578
C         1.26409246845670   15.42266663330175    5.01305752909388
N         0.66665791211536   10.58227363918161    1.09492496863192
C         2.39213715623282   14.29699286191399    6.85259078799447
N         0.57735576873763   16.22238579684534    4.55050387940972
C         2.59524965606180    9.56988682150285    4.24476307464762
C         2.06399084530201   14.38087827031145    5.49660111542010
C         3.43727402369720    8.35997530619099    6.18380848707138
C         2.44099581172481    8.68485115977730    5.25888729198697
N         0.09894614220430    7.68036778046958    5.29155085563153
C         1.17487577550697    8.09024448531553    5.30798274543226
N         4.25257053793651    8.07546460340521    6.94075729905548
C        -0.04346892696010   11.54301331760138    0.23016439437738
H        -0.05823966246683   11.19260404946848   -0.80886792224093
H        -1.08046907715653   11.61663010772432    0.56164364536270
C        -0.29051345146179    9.72148870713563    1.80741992510329
H         0.27195043377859    8.92754769232689    2.30280764780855
H        -0.99220555363368    9.25552256289775    1.10063395780971
C         2.73701674047972   10.53711413217288   -0.30779157776158
H         3.41994620783095    9.82024282883429   -0.78600702145895
H         2.35783644465334   11.19541879393628   -1.09297083549827
C         1.58213395758582    9.74071497070570    0.31282100847339
H         1.03549132576136    9.21499072004217   -0.48462309205057
H         2.00888941219745    8.99734632396579    0.98907253214698
C        -1.08327855734187   10.46658191195262    2.88852061242013
H        -1.73585650037867   11.22241505974517    2.44284552426578
H        -1.72346449106233    9.73343647314099    3.39525828619958
C         0.57595657793082   12.94311716531179    0.29868586161564
H         1.50649401519124   12.98339486211394   -0.26720327906944
H        -0.12313745093556   13.66860819133290   -0.14206242514411

