62
CSD_code = WIHREK | q = 0 | S = 0 | Stoichiometry = C22H27B9PRhS2 | MND = 7
Rh        2.21078323336854    4.41748560530399    0.91716533403568
S         0.94112032895517    5.91267930218446    2.07118351044753
S         0.80141533849587    4.72137378869422   -0.86034173265473
P        -1.63018235702985    7.16783581034770    1.77094151721415
C        -0.34286484338848    6.29621332843702    0.94746022616104
C        -0.41044460322038    5.77663621593361   -0.30774868829711
C         3.89596515192146    4.16735794633974    2.40557055951640
B         2.77448218212187    2.97806432612569    2.48814834043214
B         4.44621764668671    2.68348034405611    3.04290292299284
B         5.45813848331669    3.64999157656063    1.98904493530668
B         4.35156345451236    4.39485425531960    0.79524799878879
C         3.73922202890113    3.13154489321410   -0.13915845526025
B         2.66534489437640    2.27226337332087    0.75207848709842
B         3.58990868175752    1.47944462026244    2.03373920686923
B         5.33519118229537    1.88021505468750    1.76043533393363
B         5.35733141474128    2.98260785797409    0.35156468620904
B         4.27971077341139    1.60191708281228    0.38590177121918
C        -2.38460439208363    6.12005157537287    3.04043043265241
C        -2.21151428382018    4.74180105217973    2.98767823706082
C        -2.79180456055025    3.94341357403331    3.95692809828925
C        -3.54615259613752    4.51722079706111    4.96788742749895
C        -3.72163856531681    5.89201626328667    5.01740799156709
C        -3.14005502781954    6.69856782852269    4.05713667547267
C        -2.91356343178284    7.69453954917291    0.61499575890524
C        -4.25245504478777    7.37344658129224    0.80599191309630
C        -5.19198251191905    7.77406121711327   -0.12754554056071
C        -4.80101858023003    8.48808894649690   -1.24863144704001
C        -3.46425356411807    8.80106648193684   -1.44517209762833
C        -2.51886708427583    8.40384004242357   -0.51908859389831
C        -1.00322944469462    8.61983091282700    2.65317338603215
C        -1.23300667121660    9.91523448137067    2.20260417538846
C        -0.68329779052271   10.98439355605203    2.88694683498636
C         0.09776415779425   10.76560638208581    4.01053625349204
C         0.32303772330071    9.47464663356655    4.46120370463861
C        -0.22859964332047    8.39932079008298    3.79026345768618
H         3.85938665067746    5.02245745484588    3.07711882969352
H         3.59436704733934    3.27469677467639   -1.20745362977631
H         1.87540725985751    3.00742860983250    3.25616130544729
H         4.63035678236378    2.61142676485429    4.20294809095862
H         6.36723946901886    4.27518392651617    2.40022483803480
H         4.59842368079759    5.46560044495482    0.34673977667528
H         1.69024303493107    1.79450451965611    0.28534159475549
H         3.23159431438231    0.44697004871478    2.47588458577674
H         6.22279570993370    1.14597762076314    2.00416529000174
H         6.19150547408979    3.10323521290708   -0.47021138022730
H         4.34087769379896    0.73231785477894   -0.40395635648079
H        -1.21894967512012    6.00501810557704   -0.98934661196764
H        -1.61175416167603    4.30591542031249    2.20081073984973
H        -2.65092180645293    2.87394635824542    3.92493075164480
H        -3.99624766333925    3.89212142063973    5.72442939798593
H        -4.30855672094856    6.33520345748882    5.80820459121348
H        -3.26100264070929    7.77363833129443    4.08975017582931
H        -4.55272039245815    6.81176434809726    1.67935250899267
H        -6.23230164676226    7.52503113336907    0.01910763599560
H        -5.53777465561858    8.79651783274096   -1.97479371214287
H        -3.15979241366284    9.35040137485213   -2.32341300098197
H        -1.47085699037009    8.62828291515480   -0.66811361094442
H        -1.84539291639939   10.08636664528124    1.32839711788001
H        -0.86350856715668   11.99111067197791    2.54011797797174
H         0.52929382302859   11.60393861853693    4.53658418675795
H         0.92991460190688    9.30458055555324    5.33756388957931
H        -0.05698697117919    7.38875153192813    4.13197239582960

