117
CSD_code = WIHTIQ | q = 1 | S = 0 | Stoichiometry = C31H66N2O13P4Re(1+) | MND = 6
Re        3.26035292045666   -1.64542265920506   -3.54504079657651
P         3.19994617826711   -0.89393386779721   -5.82117480019620
P         5.17585803618883   -0.25225314574115   -3.22003302329644
P         3.42485302723873   -2.88612012420111   -1.51790303997939
P         1.30372951611203   -2.88835797647587   -4.13141624630322
O         2.30862012338422    0.28151915785291   -6.42991218306268
O         3.00989882195280   -1.98904355381980   -6.97882190282651
O         4.73381192078037   -0.46367144463835   -6.11968485115809
O         4.79624410517525    1.18200434161715   -3.86221861124407
O         6.69970143881099   -0.51245134741587   -3.59733892528627
O         5.56514557666774    0.13531809047735   -1.71034183419812
O         4.76879380187024   -3.07866533287514   -0.66732324004865
O         2.95134552122214   -4.34317559556822   -2.00238101153616
O         2.42807064471010   -2.72146835176673   -0.27561290558604
O         0.13968515500338   -3.30912614995725   -3.11170738204730
O         0.61748281530644   -1.84749770251106   -5.14637036689351
O         1.26912405119831   -4.20004712136499   -5.04750650091284
O         1.51326819105976    0.63391202230295   -2.40660288382809
N         4.32070369084762   -3.13422663375268   -4.41572827798587
H         3.99874736675450   -3.34344471089952   -5.38356465204523
N         5.24947096645537   -3.86242133016427   -4.00185461645671
C         2.17036846007936   -0.22176177982503   -2.82568853262861
C         5.85949713601037   -4.79842511792227   -4.81820041950074
C         5.87743510167483   -4.71791787420872   -6.21678388468585
H         5.39579170510712   -3.89298474791151   -6.72659033104588
C         6.55377320979598   -5.67073038099345   -6.95125933371535
H         6.57498961712115   -5.59895956574945   -8.02857600599975
C         7.20949922145152   -6.71334027890379   -6.31477860234837
H         7.73186719746697   -7.45610791431794   -6.89717806912214
C         7.20597298174184   -6.79197634083826   -4.92935019476296
H         7.72442756664917   -7.59840089253975   -4.43379937876760
C         6.54902733818486   -5.83699780483366   -4.18312132711231
H         6.53749150189384   -5.88394620664421   -3.10526417442869
C         1.95708273893709    1.43057742518386   -5.65163348167278
H         1.04191332063438    1.20100539197660   -5.09943956574980
H         2.75584169553584    1.64499403686165   -4.93753555847673
C         1.73415272596779    2.59852014906278   -6.59734995732291
H         2.64356572862000    2.82381324244693   -7.14890170200530
H         1.43752823170609    3.47525599949420   -6.02902767988913
H         0.95042527559687    2.36111038970070   -7.31220040235858
C         1.99105153165399   -2.01782448317254   -7.98222834998342
H         2.38080135648002   -1.51939951163964   -8.87649377743854
H         1.11944778605054   -1.46780959229121   -7.62951670593151
C         1.64859536341743   -3.46432093640698   -8.29188263380017
H         2.52622922697041   -3.98731531315242   -8.66450891964671
H         0.87164109646819   -3.50077211462725   -9.05058981728360
H         1.30029926801472   -3.96378903982655   -7.39215255489658
C         5.11955897660186    0.02436673508425   -7.40805729054265
H         5.84111316042466   -0.68541403757522   -7.82618540667740
H         4.24241799111635    0.06086623237824   -8.06166819722133
C         5.73861085233549    1.40581373527826   -7.29392742609469
H         5.03719844479983    2.08883470011552   -6.82292041168261
H         5.99082850276664    1.77628078367567   -8.28409080910490
H         6.64281257401965    1.36524907635806   -6.69249003308436
C         5.67764114031608    2.30364455342335   -3.70586325803235
H         6.37086575296348    2.32432347663232   -4.55125243775400
H         6.26086392968630    2.18540024807808   -2.78755682621925
C         4.85415359419310    3.57998683711924   -3.66672770233978
H         4.30482015746250    3.70502016687176   -4.59602350381807
H         5.51206829980145    4.43343900089562   -3.52921282011695
H         4.13996816331429    3.54900033910101   -2.84789143722795
C         7.24727514654165   -1.23030130364902   -4.69803092190967
H         7.71064761430661   -0.49625947583608   -5.36553836543351
H         6.45924322942867   -1.74320348073427   -5.24952741144440
C         8.29384391235075   -2.21481860087057   -4.20151597278216
H         9.02137309083002   -1.69713855679552   -3.58296763526733
H         8.80338044338808   -2.66190506628501   -5.05093169810257
H         7.83082298901994   -3.00250270883915   -3.61438664390883
C         4.56299866183373    0.69818908665953   -0.86984244655074
H         3.77816302991085   -0.05100902879050   -0.72125249949377
H         4.11310749531474    1.56716673564949   -1.36153146927772
C         5.19337211758566    1.10653933009488    0.45035272610161
H         5.59160953533166    0.23970702549896    0.96989938091961
H         4.44529513537203    1.58138689617021    1.07832658151177
H         6.00544660822365    1.80716893120416    0.27600614015260
C         6.09334351975235   -3.06888827792986   -1.19530967092483
H         6.10889975246369   -2.48817309951936   -2.11868880235050
H         6.37687588611031   -4.10080072332177   -1.42379591240018
C         7.03714613315329   -2.46635842420379   -0.17080139323507
H         6.84900540587242   -1.40180105033970   -0.07566753416899
H         8.06316651331696   -2.61034363147640   -0.49632299102470
H         6.90203330217882   -2.94556278886918    0.79574205621375
C         2.81236137276455   -5.45068234803592   -1.10246332264764
H         1.97556089859854   -6.03867107411395   -1.48996873809445
H         2.55380325790901   -5.07950866847341   -0.10787292127969
C         4.06870478756131   -6.30250595059314   -1.03314291707544
H         4.36936660757693   -6.61881622070760   -2.02876534131060
H         3.87006929920094   -7.18543323664797   -0.43106503815199
H         4.87971209780978   -5.74380437979360   -0.57523637364757
C         2.62278586118407   -1.93501163466603    0.90071818361500
H         3.64691082727496   -1.55979818373955    0.93302550781561
H         2.47834377514580   -2.61569114774712    1.74584179456723
C         1.61000348152544   -0.80390941191040    0.97410353176994
H         1.69233559356647   -0.14893185919304    0.11139915544974
H         1.78339350374586   -0.22387005803671    1.87587889186128
H         0.60220006371638   -1.20768667159187    1.00467344532511
C        -0.29007538308636   -2.48431936072649   -2.02955331612178
H        -1.10013754065824   -1.83984366865799   -2.38705697698412
H         0.54263773357157   -1.85707102138892   -1.69987849107018
C        -0.77492177993264   -3.37839043531838   -0.90233123922565
H        -1.52538740176138   -4.07216320624587   -1.27247911032740
H        -1.21516021474391   -2.77120223651936   -0.11699945086654
H         0.05892956250450   -3.94162137498692   -0.49417750862784
C        -0.72545883110121   -2.02207493766690   -5.62371192240206
H        -1.28120408990448   -2.65230885436864   -4.92303901456134
H        -0.69293825328265   -2.53194456082983   -6.59077023355134
C        -1.37800869759965   -0.65714132409298   -5.75709056166584
H        -1.39706576275927   -0.15311242748917   -4.79391554739155
H        -2.39621410253975   -0.77073018476411   -6.11869897342089
H        -0.82002267571234   -0.04225736101066   -6.45838747297953
C         1.25215531045620   -5.55348680379727   -4.59850837719029
H         0.54650830337177   -6.06758563135067   -5.25873775985997
H         0.87332648232641   -5.59189146556239   -3.57605392272378
C         2.62688138703287   -6.19015460004570   -4.69612200390596
H         3.01342104414893   -6.10598041314810   -5.70972060558772
H         2.56108514531911   -7.24277010203968   -4.43460425901693
H         3.30895702202472   -5.69775612302393   -4.01014765538903

