59
CSD_code = WIHTUF | q = 0 | S = 0 | Stoichiometry = C24H28CdCl2N4 | MND = 4
Cd        9.83743132274111    2.37086031598024    0.94535767539153
Cl        9.36547887055110    0.39105945359885    2.05545511188115
Cl       10.39671160522049    2.36699832158807   -1.35546249569800
N        12.42137070124665    5.43882351486413    2.93083481615638
N        11.34614984534672    3.79010892188881    1.91189559041644
C         9.84950298812402    5.59436225283077   -0.31402869556309
H         9.94337370723390    6.13749479372995   -1.25089421818536
H        10.71267141320570    4.92567913732701   -0.24201123466486
N         7.87008947341739    4.62213682433279   -1.50306202880600
N         8.19945754112551    3.97521306653395    0.59991685585361
C        13.30990431936311    4.38807388923226    2.84497216796388
C        10.02830431593103    5.84649043329072    2.21317583837498
H         9.98149473299917    6.57881626920578    3.02160378539972
H         9.17671608796158    5.16872925531226    2.30874440103923
C         8.63503172691729    4.73425338118132   -0.38629447388338
C         8.57981227742214    7.40775697909205    0.92963902237595
H         7.73057119246426    6.72361378520323    0.97734117995874
H         8.58161724980572    7.99621097856358    1.85078091314824
C         9.88287257894441    6.59454246636958    0.86007952314305
C        11.26128303295564    5.02748036545477    2.34632353071727
C        13.22119994493089    2.12289143982055    1.94953847800220
H        12.67766057511188    1.32745321520109    1.45384543438238
C         7.09419126462169    3.30928131309803    0.11193921307523
C        12.61333137728723    3.34898996554611    2.19816492236201
C        14.52822119127007    1.97597964346127    2.36280748793360
H        15.03817157629893    1.04066782665908    2.19085336991595
C        14.62570272487734    4.23252637494175    3.25592776210500
H        15.16780798254726    5.02608095687290    3.74683700569257
C         6.87738975822056    3.70882247207884   -1.22238667600575
C         8.41087194533527    8.36727859092649   -0.24516219500658
H         8.31885614182363    7.80979583941713   -1.17765750946368
H         7.48810422765621    8.93553392310034   -0.11221337010897
C        12.72654519398924    6.68522329162858    3.57619490094131
H        13.28369840762914    6.48522026784351    4.49233671687722
H        11.81170521738946    7.21402029807725    3.83345254970284
H        13.33530463267853    7.31952885107645    2.92732384468785
C         8.17685328288562    5.13182387228002   -2.81133597797345
H         8.24653996183619    6.22126209507988   -2.80534634828753
H         7.38389985400559    4.83949084159579   -3.49532146133164
H         9.11929526769686    4.70334188870441   -3.16028672932196
C         5.01390589913613    2.26525423986635   -1.34592725654695
H         4.19176421141161    1.83424105929845   -1.89724974366501
C         5.82892725093923    3.18983759706935   -1.96745000745014
H         5.65443663370188    3.48141568055812   -2.99211952901279
C        11.07025698725778    7.55543586192452    0.68000888663470
H        11.17989706207078    8.14279911265599    1.59452391690018
H        11.98561059003507    6.97824987367729    0.53254679145481
C        10.89641336674897    8.53470597429155   -0.48010006801860
H        11.74481694626269    9.22232682997932   -0.49214187248899
H        10.89972517020975    8.00367586346763   -1.43293530116212
C         6.26631046179829    2.37428268247637    0.72535652876361
H         6.44624317930344    2.06105149616595    1.74410658178833
C        15.21653393887698    3.01086938969127    3.00248865915801
H        16.23973832458546    2.84872504024924    3.30568901717439
C         5.22934459653590    1.86237896610768   -0.02611653429414
H         4.57006458971454    1.12716021807518    0.40958590889601
C         9.59781911184552    9.32004577623406   -0.33412215643819
H         9.64104074477998    9.92798291328558    0.57259405098412
H         9.47365542371907    9.99564405193313   -1.18231655587331

