19
CSD_code = WIHTUC | q = 0 | S = 0 | Stoichiometry = C4H9MoNO2S2 | MND = 5
Mo        1.19545455728323    2.98994716326108    0.80076847731033
S         0.44182773629302    0.93554247108885    1.64534447591182
O         0.16488555550460    2.99005111139264   -0.46449375893273
O         2.83199661938519    2.99002844770512    0.66360569064369
C         1.64953406674695    0.59787026758706    2.98765497833022
C         1.62498218865446    1.76053689437803    3.96643581800717
N         1.91410254680020    2.99000353685229    3.23826953458174
H         1.34659618749284   -0.33236202864021    3.46708464400748
H         2.63563365701422    0.47535172421820    2.53330409186752
H         2.34238158818900    1.58630659012160    4.78264355302449
H         0.61850794908794    1.84071280186784    4.39420623472301
H         2.90282489257882    2.99000410764718    2.97521026473385
S         0.44183851641521    5.04440383940256    1.64534411509007
C         1.62498126319300    4.21946767117363    3.96643902248138
C         1.64953784067443    5.38212888332975    2.98765264135330
H         2.34237877901433    4.39369925253777    4.78264815294208
H         0.61850568558919    4.13929140968987    4.39420656835874
H         1.34659277576562    6.31236691917433    3.46707270912428
H         2.63563759431799    5.50464893721213    2.53330278644144

