67
CSD_code = WIHYAQ | q = 0 | S = 0 | Stoichiometry = C36H26Cl2P2Pd | MND = 4
C         1.46369126347558    7.58277251420425    2.37879439145253
H         1.26703935219931    6.86186071476302    3.16034855932392
C         3.16943060365110    9.75743329509237    4.84943226087090
H         3.40369700887782    9.43898502339169    3.84307019161988
C        -4.54792367512116   11.32526832336658    0.61464986894808
H        -4.25104867768025   10.75434581833700   -0.25492669443970
C        -4.17436471330904   11.99584722557219    2.90099116080155
H        -3.55445011312479   11.94410396527501    3.79929544338362
C         1.97213408551100    7.16389687821329    1.16118016903627
H         2.17170677563964    6.11469581727171    0.99775823702442
C         2.22158499484882    8.08231933984658    0.15571099982711
H         2.61191069392248    7.74978995824153   -0.79459867684714
C         4.18350969698922   10.03712803835361    5.74949413060662
H         5.21402318480929    9.93159612229380    5.44320979938356
C         3.88177670782928   10.45815380081529    7.03322757266845
H         4.67764732202419   10.68042223554925    7.72861948859307
C         2.55979185446024   10.60716369818252    7.42517154858579
H         2.32588373991859   10.94746149394398    8.42313974527930
C         1.46068937796013    9.85623046116709    1.58012835618259
H         1.27966711380909   10.92553824688478    1.74825702160207
C         1.97229433738473    9.42929627463286    0.36861938692778
H         2.16901571979206   10.14709554525813   -0.41337125368062
C        -5.28248750212993   12.81683505774187    2.84605318309249
H        -5.56627368351111   13.40507528744800    3.70601813215189
C        -5.65477051490148   12.15626142126496    0.56485006991656
H        -6.22826780291115   12.22952284000141   -0.34781498095241
C        -6.02256815862438   12.89633991631502    1.67535152588009
H        -6.88326582552101   13.54689645772544    1.62672188383372
Pd       -0.72861379553521   11.26216828111590    3.16866838181799
P         0.44712683234421    9.57095051065418    4.13584043765396
Cl       -1.31621593996374   13.01352639894373    1.84261924263823
P        -2.35606156190521   10.18418221963033    2.02166010905730
Cl        0.81616979322773   12.58124876631285    4.18251867432437
C        -2.63701515437143    7.85456172987135    3.57041100290257
C         0.35576287468734    7.26253256843198    5.87115877361245
H         1.32424835832382    7.55752412796676    6.24944853678683
C        -1.75972562880282    9.66776419798163    0.38632444245085
C        -3.18698539914317    8.66914171913619    2.62317382928633
C         1.84607826440735    9.89935645751641    5.24398217069061
C         1.54310832064738   10.33108309063856    6.53316058680401
H         0.50565066489978   10.46170864456906    6.81643690073850
C         1.20093727663925    8.93102419651497    2.59576532200466
C        -3.27385566418519    6.67885442807052    4.06649562625495
C        -2.10192327563801    6.43564520427757    4.96973413241211
C        -1.50799676500006    5.67119792296535    5.92644340060505
H        -1.94613170666778    4.77731886324110    6.34282187787139
C        -1.47980014298452    7.61072992026300    4.46227857154655
C        -3.80542131719367   11.24845738096498    1.78458018902863
C        -4.46435267966646    8.25425118614392    2.16667322775263
H        -4.96565646597316    8.85563420422975    1.42203441417456
C        -0.25661177933003    8.06035271487818    4.87238527363756
C        -1.45242092753217    8.33449470781847    0.12905836140862
H        -1.65387740410936    7.57958625992231    0.87700201070734
C        -5.07951853248151    7.12042116302263    2.64253936095681
H        -6.05235584679327    6.85483520396975    2.25499701180133
C        -4.49649440760566    6.28447026657734    3.62143414802415
H        -5.01208266984699    5.40462598789233    3.97419744493862
C        -1.47720703432545   10.64009403153904   -0.57127368701144
H        -1.68779650047855   11.67788094152140   -0.35062799042010
C        -0.24543566588705    6.12742274396412    6.36567982804769
H         0.27036099449639    5.55615398381783    7.12404312270971
C        -0.61994919059119    8.94297951259841   -2.03679285240286
H        -0.17630947826757    8.65999063704491   -2.98007554238396
C        -0.88715674189279    7.97694031682400   -1.08108903570628
H        -0.65166991606440    6.94094850361202   -1.27637185440944
C        -0.91543896460447   10.27243564671556   -1.77984478782627
H        -0.70113598905076   11.02716958768573   -2.52207218353463

