93
CSD_code = WIHYOC | q = 0 | S = 0 | Stoichiometry = C24H56Cl2N2OsP4S4 | MND = 6
Os        2.86540660780818    7.71155430125143    6.13137389342987
Cl        3.91959152558087    9.44611078318422    7.07003050315438
S         4.85844074492038    6.26189411981854    6.33334464843200
S         1.83976172471700    7.19423622485426    8.31324416243019
P         5.42667622078591    6.04684094144072    8.27209733241453
P         2.69425561762192    5.52909076432952    9.10247388902937
N         4.29845364844059    5.53477644184708    9.31305041293966
C         6.10878487038856    7.66216512761484    8.89540996149742
H         5.22214103539310    8.31057135841052    8.92922574176974
C         6.67316656453677    7.53767791529144   10.30345307234351
H         6.77672560511191    8.52747683036334   10.74459397066801
H         7.65610415645009    7.07069950732415   10.28788574568298
H         6.00717464374496    6.94784560307848   10.93036312997449
C         7.11414513470713    8.24906725815183    7.91580377840296
H         7.40546364382485    9.24515840490570    8.24222757184992
H         6.67301897856041    8.33350804290659    6.92437684050141
H         8.00800691945090    7.63026457684434    7.85062998776121
C         6.77241930618772    4.76292358813628    8.26103716409604
H         7.69507470335177    5.27693599657322    7.97080199243710
C         6.92076071426636    4.15371792023386    9.64895161367208
H         7.63531412762716    3.33256393678793    9.61607414355155
H         5.96167460713699    3.76762977398672    9.98649833427951
H         7.26701958753399    4.88069526549091   10.37670683116572
C         6.45092081946356    3.68295215827709    7.23437594324446
H         7.21772119486911    2.91018290999578    7.25383580732245
H         6.40241897742741    4.10079013280444    6.23177120583044
H         5.49044774432199    3.22329555574810    7.46123328104985
C         2.06794964913844    5.41538106151383   10.83721616219812
H         2.56535122018099    4.53579391254871   11.26189237862024
C         0.55546566371653    5.26857325964647   10.90527870119903
H         0.21973026550935    5.39093688596189   11.93404656167874
H         0.23212982913888    4.28993527925547   10.55990459201466
H         0.07835842799979    6.03301450467850   10.29487750208338
C         2.53557457229672    6.66386294408828   11.57535699891803
H         2.28340178099670    6.59561132311244   12.63206409435336
H         2.05590263573624    7.54638125520534   11.15642953392353
H         3.61287292004788    6.77718754492387   11.47889626293545
C         2.23225986930281    4.02950673411307    8.09291613289147
H         2.84647577556366    4.15811717853718    7.18771993236717
C         0.76829215291249    3.98076720725650    7.68297693220393
H         0.64516161126120    3.27564075722208    6.86334705584486
H         0.43471708806343    4.95659354678232    7.33555118413229
H         0.13319612666308    3.66529653552490    8.50663310070847
C         2.67958465924013    2.77293900991422    8.82686881643961
H         2.64365225627370    1.91611930119663    8.15637626724540
H         2.02996423048699    2.56979243274937    9.67641475226090
H         3.69947461469185    2.88757705534335    9.19139626801332
Cl        1.81113607130883    5.97700297115530    5.19264385228023
S         0.87302177822533    9.16084216730136    5.92923082767608
S         3.89128256266151    8.22766120345622    3.94932169507482
P         0.30444337558859    9.37587185735457    3.99076212255022
P         3.03699738808459    9.89348573091306    3.16073979436183
N         1.43277317886696    9.88807166558711    2.95005474892286
C        -0.37750208488908    7.76053858621507    3.36728480176505
H         0.50919503149426    7.11219268669875    3.33348392321647
C        -0.94187295384932    7.88518309537596    1.95924350991492
H        -1.04540393857554    6.89544362743677    1.51796548219849
H        -1.92482747445495    8.35212618083557    1.97487221069607
H        -0.27590878990646    8.47513637435628    1.33241983799653
C        -1.38286894474746    7.17345245559677    4.34677081446713
H        -1.67413454593214    6.17738840266823    4.02021714903561
H        -0.94178335661153    7.08891433019622    5.33820347712474
H        -2.27676019502394    7.79220261139461    4.41199859723806
C        -1.04136314801219   10.65973016421208    4.00192467349228
H        -1.96400650830334   10.14564904171829    4.29205966731582
C        -1.18969562359607   11.26910100531844    2.61408534044713
H        -1.90427697248724   12.09022886379429    2.64705921900732
H        -0.23061718193595   11.65526457890123    2.27660547570357
H        -1.53591804932330   10.54220649259790    1.88622875216112
C        -0.71995379621609   11.73957424924112    5.02874469007845
H        -1.48678970503095   12.51230873079112    5.00936546619668
H        -0.67145783195839   11.32159538853923    6.03128971168307
H         0.24049955050673   12.19930839571396    4.80197048021248
C         3.66320290096315   10.00768390267760    1.42596351978198
H         3.16584926878254   10.88736095121815    1.00138331895768
C         5.17568876127291   10.15447391248560    1.35791286429762
H         5.51141537490968   10.03228340639528    0.32912426594175
H         5.49904395355563   11.13304687083935    1.70345282805726
H         5.65278909288540    9.38991475495066    1.96816912496451
C         3.19557764921110    8.75935283318060    0.68756221997814
H         3.44780701666029    8.82779383847913   -0.36911720825501
H         3.67520459459453    7.87674624074406    1.10634342934841
H         2.11827632215950    8.64603900910514    0.78392972847378
C         3.49891226862907   11.39319159658174    4.17018225719381
H         2.88475006639990   11.26451038951310    5.07540405747026
C         4.96288937682832   11.44196743910916    4.58008282049831
H         5.08599802872094   12.14689707287906    5.39988178811726
H         5.29655630883387   10.46608968543719    4.92725284137725
H         5.59791848657673   11.75769787345729    3.75648259287063
C         3.05152466440185   12.64990192546157    3.43647850852982
H         3.08752524942720   13.50668993586927    4.10701290072455
H         3.70105336757965   12.85311334602801    2.58688441576485
H         2.03160463827414   12.53531098899408    3.07203321612858

