74
CSD_code = WIHZOD | q = 1 | S = 0 | Stoichiometry = C30H37ClN3P2Ru(1+) | MND = 8
Ru        5.42846155693550    6.47610136578103    5.11611833608944
P         6.09646134901735    4.45882342205125    5.96887284331676
P         7.34177314279292    7.11117637799743    4.14134478824324
Cl        6.70948829696974    7.63633768319247    6.80058049889578
C         3.64955379062014    5.86648372223499    3.91427836307756
H         3.49660298738297    5.01817963381101    3.26201343997108
C         4.02437413506348    7.17108045024819    3.51463288797295
H         4.24757116296938    7.47827703916765    2.50024951313214
C         3.90750502227544    8.03597887889079    4.63543094081644
H         3.98856981431080    9.11435581505934    4.61828153206669
C         3.40984961579695    7.26691176368549    5.72181044132821
H         3.10851184380019    7.66435328259856    6.68152027686818
C         3.26104499085438    5.93417901044756    5.28858349467285
H         2.79563890340671    5.12965035208814    5.84361739357973
C         5.37354189531243    3.10785037503070    4.98867018229490
C         4.55900177749785    2.11409680219287    5.51507529931935
H         4.34034006983139    2.09388286788923    6.57287002171402
C         4.01940006209019    1.15043809459644    4.67861924759436
H         3.38473889872372    0.38093884172260    5.09145265705004
C         4.28637758076747    1.17136385178820    3.32052782981628
H         3.86448025836220    0.41664056526473    2.67467256136905
C         5.08542808053496    2.17167689517785    2.78679201907483
H         5.28322468588696    2.19660563673529    1.72486253181968
C         5.61621678463699    3.13978615508395    3.61610931960038
H         6.21379606867155    3.95283253113965    3.21511793190547
C         5.61454284008206    4.10077133353311    7.68230194265911
C         6.03727848616522    2.91934232524476    8.29175341808357
H         6.64934852217432    2.21950729303321    7.73813560947246
C         5.67765113493278    2.65505750367661    9.59887833526697
H         6.00296322762150    1.73981599824757   10.07032251679327
C         4.90663433446710    3.56515339568552   10.30748879613918
H         4.63206605123201    3.35534998918713   11.33005890594751
C         4.49878852897865    4.74531069808577    9.70982634634246
H         3.91044644740951    5.45925554100563   10.26635174488953
C         4.85225551543366    5.01401514861157    8.39882625394515
H         4.55742765255390    5.94512395571477    7.93201750460827
C         7.86519806492790    4.02683210421611    6.06864202995265
C         8.50152808651386    3.13033001461985    5.21779405304047
H         7.93932831505906    2.61388562741996    4.45266596062409
C         9.85556202991830    2.87894209105121    5.37013209917050
H        10.34435100907022    2.17153531541958    4.71613994469299
C        10.57791780308006    3.51545518688549    6.36596385404197
H        11.63022611768304    3.30720950847905    6.48545775568672
C         9.94571712854189    4.41014665342428    7.21668533011343
H        10.50511840287098    4.90087478868408    7.99834944729893
C         8.59614545652375    4.66765254671156    7.06969551554382
H         8.09391173484759    5.36787607190649    7.72379281270685
C         7.75185474573169    6.59451651070531    2.36400552777373
H         7.96711781919858    5.52003017814678    2.36193125188321
H         6.86078275781146    6.75955662372862    1.75114599487615
C         9.09223177309463    6.92710879264704    4.74303888675356
H         9.15344634382335    7.31162748754396    5.76388062977265
H         9.36845529986734    5.86942748703589    4.75968612922209
C         7.38637302495431    8.95704944401174    3.87638774196625
H         6.49517956988682    9.22463623414814    3.29467957516063
H         7.28710206172271    9.40930900283607    4.87557493135586
C        10.13711722909485    7.10515495832395    2.58710528761421
H        10.33301726587480    6.03060475518119    2.65077994794604
H        10.96037627270084    7.59722939016484    2.06008278959865
C         9.79920063185708    9.07738034983174    3.90221204816242
H        10.64918755020079    9.56401359124740    3.41342198795842
H         9.75375996305394    9.40683626814280    4.94769898037710
C         8.49033039146273   10.87697186328391    2.90906208410898
H         7.59812722235218   11.08329799416931    2.31989990778992
H         9.36502525749126   11.19168618324390    2.34157957941067
H         8.44162034342258   11.45925218063559    3.83358293351565
C         9.06230064932167    7.06561008498635    0.34773957622606
H         9.86887463039218    7.68028551881524   -0.04793171455140
H         8.14593024087727    7.30152901004937   -0.19039818353976
H         9.30528800255047    6.01515526600691    0.18552187155786
N         8.57347762127418    9.44614533371398    3.16984795418907
N        10.00903498650432    7.65263897362866    3.88735554973207
N         8.88528992527998    7.33072811103631    1.77523076889814
H         8.68113875550231    8.39007390179735    2.03519343363609

