92
CSD_code = WIJBID | q = 0 | S = 0 | Stoichiometry = C32H54BO2P2Rh | MND = 5
Rh        8.67082688225719    5.21930119500753    3.98716271479710
P        10.38610434648190    6.69643574850746    3.89258817091683
P         7.61529436084966    6.06021224915839    5.82351743055907
O         9.53641440972285    5.38575104184314    0.15509464603516
O         7.37968410757391    4.95490030200429    0.72064527808330
B         8.70013995138973    4.78559285496826    1.07655738503764
C        11.58183004958883    6.53994559464344    5.30658759979078
H        12.54445517776585    6.98829892865474    5.05275613259435
H        11.17043729543776    7.08020546557339    6.15988268100972
C        11.74684881582110    5.06642393048282    5.65772215375268
H        10.75807359954791    4.59687510650867    5.71231297695433
H        12.25436724492760    4.93869783626982    6.61246229674827
H        12.32440728218053    4.55233757971968    4.89258495333579
C         9.98314561592070    8.50620600209636    3.99234974661600
H         9.47870885347232    8.67782861287116    4.94499468573950
H        10.89413823370547    9.10671966008067    3.97910733344618
C         9.04629084660875    8.88387754910945    2.85531943282928
H         9.54271208643265    8.77094054387682    1.89377996738636
H         8.70021213433833    9.91264255888120    2.94780519185706
H         8.18296311561718    8.21853949562567    2.87695078708904
C        11.57580724776642    6.67978241869338    2.46279194422242
H        12.17979608284969    5.78222519350040    2.61508248413034
H        10.98564013186230    6.51905101953555    1.55845692330962
C        12.50075407019064    7.87772644332198    2.27995549500633
H        11.95532352304557    8.76165906404707    1.96005374172546
H        13.23774328673050    7.64808369526470    1.51150268756692
H        13.03883245829568    8.11667134523093    3.19556340621766
C         6.63617077305148    4.83842857393686    6.81532288772974
H         6.08286050413071    5.33915895051155    7.61260011522358
H         5.91473294041782    4.38448323251952    6.13467045420592
C         7.55600823212690    3.75942214083828    7.36861338313401
H         8.19267730327817    3.37904029710706    6.56869164035352
H         6.98277460650793    2.92804846146375    7.77484330319263
H         8.19398111314516    4.15378895929561    8.15685119165899
C         6.30054457789591    7.31932672771903    5.44828914195632
H         5.58301725155962    7.38989641020144    6.26899530782040
H         6.79984636487700    8.28609466263696    5.33873194324287
C         5.59148643461210    6.95922330517794    4.14947458702948
H         6.33340170338435    6.75644820078212    3.37289879934049
H         4.94396618086887    7.76931586503459    3.81620650415317
H         4.98574575278857    6.06522108893612    4.27934003225183
C         8.51450098052990    6.92618318308033    7.20974586620172
H         9.30667675398714    6.24469493820186    7.53075110208014
H         9.00287213019670    7.79285810008569    6.75850014039970
C         7.70884689459796    7.38600147169458    8.41888976116469
H         6.88545746494145    8.03082952537236    8.12277452354994
H         8.35354802581551    7.95234877427440    9.09023345352731
H         7.31003432247484    6.54375072417963    8.97717654378687
C         8.38359909907135    3.20721477495803    3.14024096136870
C         9.25617786823921    4.01258097332447    2.31168806535072
C        10.66142007803254    3.45349442853429    2.08858900436097
H        11.21548100942049    3.37914506355433    3.02818449952519
H        11.19884460686843    4.14152799932930    1.43249364163823
C        10.67289414056996    2.10492981627206    1.41106273460916
C         9.66143237356649    1.70369933458269    0.54742499025579
H         8.81991650007754    2.35863872503828    0.37752484464264
C         9.71511911193656    0.47442925268131   -0.08463938692579
H         8.91729014321227    0.17812982226409   -0.75142824853817
C        10.78253958421455   -0.37906903622965    0.13488313801592
H        10.82232314242458   -1.34023881093928   -0.35690662949721
C        11.79742184083730    0.00829362419420    0.99261710442717
H        12.63479950720285   -0.65104407607103    1.17324382130664
C        11.74061003272769    1.23829094168265    1.62217549097767
H        12.53810494337648    1.53115592146966    2.29263947250410
C         8.77458465711610    5.83542095389534   -0.95675502471071
C         7.29289765651419    5.78638035151743   -0.43033891988390
C         6.28382469684994    5.18395344273675   -1.40791379001946
H         6.53006322556906    4.15349478998157   -1.64354298561014
H         6.25043616223165    5.76800751732784   -2.32371547385740
H         5.29874764936477    5.19624907687493   -0.94712199287857
C         6.77085500502022    7.15052030624316    0.03875807775423
H         5.80268683581963    7.00516603854476    0.51364559157694
H         6.65439395362558    7.83619581393867   -0.79518346274663
H         7.44628529797727    7.57721311760253    0.77476147412821
C         9.03957980281981    4.85423808715017   -2.10708374952766
H        10.10767055074666    4.84624209963636   -2.31355306900675
H         8.50748057723832    5.14761512354029   -3.00709595147006
H         8.75123686633278    3.84624162277312   -1.82039199833719
C         9.26176244512405    7.22357806871347   -1.37271962674920
H         9.22992497049370    7.91808031785274   -0.53909086551828
H         8.65463389406643    7.60859422618649   -2.18751593963464
H        10.29316907181192    7.14654330491310   -1.70910210697311
C         7.05983183316394    3.68591308042833    3.37835399419363
H         6.63885373823108    4.41751332198108    2.69360671704605
C         6.16896336069718    2.93037061481190    4.15411215460805
H         5.13415987878364    3.24449797347186    4.22389113647527
C         6.58079218299160    1.78579375968036    4.79073286981741
H         5.89105829335311    1.20557684347130    5.38674081556976
C         7.90512562820737    1.35977665604378    4.64440763929098
H         8.23071622473192    0.46140163200578    5.15127784337299
C         8.78646430887022    2.04610128427359    3.85058852958469
H         9.78412572890942    1.65584679114745    3.71826568068653

