81
CSD_code = WIJCIC | q = 0 | S = 0 | Stoichiometry = C39H38P2RuS | MND = 8
Ru       -0.71739537756350    7.45794977330992   12.15047523731612
P        -1.63806099844184    7.96431998442498   10.16354829597814
P        -1.30656344969195    5.38454003673851   11.53282340386414
S         1.38749040097529    7.08963715155827   10.96099015900627
C        -1.53029167698453    7.62509045371892   14.26021693391014
H        -2.21698059250486    6.96817324010666   14.78071844817846
C        -1.87985449395687    8.79674499947770   13.55619457107053
H        -2.87793574255104    9.20331328080156   13.44383723362402
C        -0.67108281445951    9.45644924341434   13.17740838348643
H        -0.60607685906073   10.45156906166384   12.75652133387312
C         0.40995483006402    8.69803633121415   13.67337563421916
H         1.45459166240178    8.97882362649314   13.63752303337039
C        -0.10859109438142    7.54175088447920   14.30874942811081
H         0.46357094285752    6.84818458306235   14.91023935422832
C        -1.72046255548052    6.48857918664627    9.02219771109195
H        -2.76183445438942    6.31202253507123    8.74191282404824
H        -1.15804252817115    6.74047718847876    8.11788946894400
C        -1.12495942869613    5.25138961269765    9.69446356021452
H        -0.04220782089521    5.23252840851425    9.52156649777567
H        -1.57913764867097    4.32925437164238    9.31835642179272
C         2.28654773309197    5.81559687818182   11.93285502504622
H         1.53955113049160    5.08425752086052   12.25398334064700
C         3.30233251204501    5.13625885447409   11.01930025374181
H         3.82419618843642    4.34960263535726   11.56306877075474
H         4.02778304970236    5.86327141779673   10.66254401173764
H         2.79896556686987    4.70122665572716   10.15909557035939
C        -3.34441396186414    8.60988808157340   10.21964764576275
C        -3.46901743538515    9.95365893102619   10.57112166276675
H        -2.57127257922744   10.54480937216753   10.70248234919387
C        -4.71399985778089   10.52511899340091   10.74294588151079
H        -4.79782810837631   11.56833948797890   11.01212019130022
C        -5.85628652717682    9.75739054857470   10.57464404001468
H        -6.83189997996149   10.20058671604661   10.71141750902188
C        -5.74168541262870    8.41990730019524   10.23785605648357
H        -6.62847461058537    7.81526203078869   10.11202167547737
C        -4.49432528696078    7.84506813535319   10.06562938534160
H        -4.42980618998511    6.79501654748691    9.81962177049212
C        -0.89940825334165    9.22571636155806    9.07443156567667
C        -1.51993377260065    9.56474709413241    7.87454409511071
H        -2.43778672075828    9.06741910911221    7.58811082347952
C        -0.96650421321977   10.53763660057982    7.06520629284507
H        -1.44713507267878   10.80234559967923    6.13413888227869
C         0.20364397533178   11.17687771025641    7.44759654660459
H         0.63188506693330   11.93809918975047    6.81168450144214
C         0.82150775441318   10.84128728047284    8.64007165037007
H         1.73434332129965   11.33798265809853    8.93470919261778
C         0.26944410683350    9.86870555950312    9.45571591785503
H         0.74571748419014    9.58215441171421   10.38441939956318
C        -0.52133981378891    3.86272831881980   12.15962167289919
C        -0.62519586130165    3.68655133792122   13.53856199076487
H        -1.17076030988560    4.42527524283310   14.11464139005368
C        -0.03362701124428    2.60248081351069   14.15545769424508
H        -0.11592653850765    2.47400262048336   15.22528286628555
C         0.67437298192649    1.68223069285878   13.39706536463320
H         1.14632490295437    0.83693508261156   13.87588795584873
C         0.78142575304262    1.85079463100132   12.02698188160985
H         1.33604745801504    1.13465076031180   11.43792695144383
C         0.18784068465227    2.93577825655476   11.40430165176076
H         0.28990016123351    3.06288172758134   10.33691892793520
C        -3.05098676243198    4.89024742112238   11.76718501026255
C        -3.49150262822904    3.62144257741233   11.40281641555772
H        -2.79041341378061    2.90638358475685   10.99289480472746
C        -4.81847110093384    3.27542821126012   11.57495424966123
H        -5.15996125064449    2.29123335704743   11.28796393982731
C        -5.71159993298452    4.18633692519231   12.11904738583265
H        -6.74707614096991    3.90987328872168   12.25422558575258
C        -5.27561035838925    5.44625903134190   12.49217605304125
H        -5.96870604079370    6.15788007197887   12.91732520608476
C        -3.94866097920832    5.79582778137243   12.31485650476946
H        -3.59263088613671    6.78156740393768   12.58936911549279
C         2.95823944387617    6.40734607941605   13.13463153319702
C         3.71671177475601    7.56660356804492   13.02731338733338
H         3.79182203660338    8.05255310774230   12.06470977659572
C         4.34094447546837    8.10346748349961   14.13783371588859
H         4.92379513878776    9.00899203762162   14.04316655016511
C         4.21686052738485    7.48579916430279   15.37157969773893
H         4.69978632825307    7.90783079102718   16.24122440160891
C         3.47005057975336    6.32607705246418   15.48621924976610
H         3.37074173375139    5.83937244851352   16.44666554535718
C         2.84604792428124    5.78877939930187   14.37364123615130
H         2.26368691698933    4.87992409408157   14.46276034611433

