47
CSD_code = WIJHOM | q = 0 | S = 0 | Stoichiometry = C11H27NiO4P3Si | MND = 4
Ni        1.50425783005190    4.37204739897956    8.13322294971493
Si       -2.02740979925902    6.29611224927733    8.06429772402424
P         0.19526735410819    3.74186010714406    6.43405454323893
P         0.28263863233479    4.02569931031870    9.97333759328252
P         1.72023821871126    6.58847789973937    7.95283518282048
C        -0.72138099642530    2.15181657400448    6.52134287105658
C        -1.20573632399914    4.84851907904761    5.90029557661546
C         0.99039471810034    3.55659194410825    4.78600222886683
C        -1.54850106300075    4.36811761971618    9.93614822945813
C         0.70230008627067    4.92067683859302   11.52262762348915
C         0.18957306760289    2.30608189424181   10.61776878390433
C         0.29255007777343    7.68584051445415    8.42895628624771
C         3.00665409425756    7.39687306502786    8.98815530608913
C         2.11810636273737    7.32933782195803    6.31955994082730
C         3.19109153053524    3.76061720843645    8.12709815572856
C        -3.68386245862022    7.20512751244747    8.03264602862233
O        -2.09573934402762    5.10212290745911    6.95405061480932
O        -1.81885908363521    5.69392271640446    9.56649617683298
O        -0.86077142212310    7.37730111611876    7.69511451067871
O         4.34027283292416    3.79002520689289    8.07222505578588
H        -0.02308992360294    1.35628894499902    6.77610034254763
H        -1.20409127105438    1.92784776431397    5.57085768619785
H        -1.47413564450734    2.22084515293123    7.30446269948791
H        -1.77746993342002    4.36640408000266    5.09735244226650
H        -0.78137514860172    5.78793657844153    5.52719392079816
H         1.72996421151192    2.76128372895342    4.85068230058515
H         1.50499544516109    4.47960391201263    4.52691028069034
H         0.25831927559707    3.31522216397349    4.01652505269461
H        -1.97883699563890    4.21161641238096   10.93329521084660
H        -2.01621861815585    3.67387450850285    9.22833967209522
H         0.52018033090904    5.98376125327825   11.37656572751313
H         1.75900387920396    4.77368068908931   11.73983140421609
H         0.10137410823721    4.55939088335700   12.35621116230841
H         1.19118619625250    1.99473666173483   10.90647373679047
H        -0.15882726541201    1.64291619043937    9.82880319315634
H        -0.47753279621965    2.23936751096693   11.47616442984694
H         0.54371818810760    8.73387396025653    8.22234014821700
H         0.10560536441504    7.56382119739884    9.50219987106117
H         3.97911771435813    7.00946567672109    8.69118490573149
H         2.84268438709870    7.14135590268010   10.03307239513743
H         2.99077927071556    8.47907050131748    8.86665673191128
H         1.27707035290213    7.17173330162789    5.64693377422262
H         2.99356508693126    6.82852673434551    5.90917908993904
H         2.31468893460936    8.39653327361679    6.41451999501698
H        -3.81768702432776    7.79668635103000    8.92998528653656
H        -4.50765158545555    6.50501193721997    7.96747789876548
H        -3.74282085393020    7.87137574404939    7.18074525932323

