51
CSD_code = WIJKEH | q = 0 | S = 0 | Stoichiometry = C17H21BIrN7O4 | MND = 6
Ir        6.84197727735708   -0.11543383178850    8.00806349874130
H         5.39108539669897   -0.49517008784818    7.71366095265397
O         6.20429632221247    1.80559019393136   12.42703649737199
O         5.49262651966151   -0.17203330051993   13.20368389393169
O         7.72292064518557    2.64600523039993    9.98675916458435
O         5.48810642318436    2.86906227435738    9.96407023071545
N         8.86723281286334    0.43037243549687    8.36349854621706
N         9.55660923949708    1.02686655483802    7.39376525426383
N         7.59794277731391   -0.88577047179406    6.17301892977481
N         8.47862439980932   -0.14025868879376    5.50348328273088
N         6.63973091634185    1.63608030791536    7.00445179326160
N         7.64254003160817    2.06897187085053    6.23328496751001
N         7.19588649171144   -1.80480061913359    8.96270965348888
H         7.92150522113199   -2.39385346764747    8.54792500884266
C         9.63758658642961    0.37918878058900    9.43562190854405
H         9.28371316732066   -0.04864421160523   10.35312615356322
C        10.87449936071417    0.95705205419752    9.15512574258461
H        11.70851770040203    1.07103657169982    9.81618878621051
C        10.77542112553568    1.35973303884873    7.84029114364584
H        11.48307647193236    1.85380636187959    7.20566358741063
C         7.43796165776826   -2.02049842065198    5.50502534001327
H         6.75881323320391   -2.77485073077321    5.85208435078055
C         8.24069103449165   -2.01345319454829    4.36662074242553
H         8.33448859709732   -2.78004533186175    3.62561839574353
C         8.88517665543993   -0.79374322889700    4.40850521511963
H         9.59601505231332   -0.36019568591516    3.73494726747760
C         5.68066244886570    2.55515490708609    6.97804951650910
H         4.76974429457258    2.41818227089553    7.52632932113384
C         6.07793724568611    3.61975001320262    6.17395328404334
H         5.53125818457544    4.51348007334424    5.95494728819850
C         7.33222698622966    3.26572121520584    5.72191996790679
H         8.01097140823130    3.78578514091512    5.07685496235155
C         6.74575331268998   -2.22920997934409   10.07959782791135
H         7.12318689578993   -3.15144956948268   10.51879711722201
C         5.69038227985343   -1.49410753397153   10.82428203842978
H         5.55643760598744   -1.91155312194034   11.81947151680163
H         4.75366049826289   -1.59936007800155   10.26526091458107
C         6.00151128779920   -0.00897598381907   10.90604891533932
C         6.34461543545110    0.69566528846033    9.81164330610472
C         5.91916075718750    0.64911820090870   12.21616406935167
C         5.38204673357946    0.42565638009965   14.48464541247720
H         6.34717639543220    0.82518122120279   14.80377846858263
H         5.04989456774608   -0.35967861171374   15.15940974064197
H         4.65779615352542    1.24260186042372   14.46092284329274
C         6.62225724047699    2.14825893979180    9.96611996629191
C         5.65925773121310    4.26567691464962   10.13936483877715
H         6.09678982482452    4.46134252576579   11.12028767063466
H         4.66834341672309    4.70693114623286   10.06549931642880
H         6.31980357384126    4.66855039679039    9.36740268774635
B         8.91832624002203    1.24175517001775    6.02359520913842
H         9.65975436421260    1.76700881005681    5.26652349249354

