78
CSD_code = WIJKAE | q = 0 | S = 0 | Stoichiometry = C37H29Cl2FeN7O2 | MND = 5
C         6.25917326424649   11.63833410869586    4.83339587712153
H         6.42458290582432   11.13289112628819    5.79114887188405
H         7.17234479768915   12.17792231771572    4.54401208028570
C         5.11328888995725   12.58840207611986    5.00000567114130
C         5.28600778946045   13.95498825399308    4.84588541199255
H         6.25434714397456   14.35826587051015    4.59306420985171
C         4.19353083377909   14.78564089942649    5.04107801869637
H         4.29010988306157   15.85622006478907    4.93762632914786
C         2.98887834520394   14.21479307799456    5.38963158094522
H         2.13107265537177   14.83372546525648    5.59357133389477
C         2.88860158486595   12.82441823198175    5.52198460471547
C         1.63192288683743   12.21740932159380    5.96015778220414
C         0.39985144468583   12.82744807350955    5.71039743170735
H         0.34381942937755   13.71732446859344    5.10145063420488
C        -0.75840832951223   12.27755598279170    6.22319359301544
H        -1.70627530619239   12.76309914913138    6.04357889631960
C        -0.72271057469543   11.09675777190222    6.94424064360370
H        -1.62791032557716   10.66386180117405    7.33719718790047
C         0.49176321155979   10.44701082693534    7.13990259493030
C         1.66848064023485   11.03110020063652    6.68175628084100
H         2.61938656221714   10.56710641485490    6.89364969010683
C        -0.27771261041641    8.63916640264733    8.62019675634596
C        -0.10178645181994    7.15499451365614    8.75143896201274
C        -0.69511369721518    6.45441932693034    9.79874739423806
H        -1.21515323120903    7.00095003438723   10.56948513178224
C        -0.60447838316614    5.07176894935062    9.80203352734575
H        -1.04131043100241    4.49474198353239   10.60418269634205
C         0.02794946910024    4.44011806700357    8.74325508729545
H         0.08981824200100    3.36624100433629    8.66503139610915
C         0.59050203314775    5.22785228613144    7.74200626637753
C         1.17613980393142    4.60680209039840    6.50736481000065
C         3.47203770767298    6.09588534228988    4.09944777661137
H         4.04952688155372    6.62146598398279    4.84373949815325
C         2.35134507020546    5.36213252024287    4.47664999322739
C         1.67565874404706    4.59896185095057    3.53078318793010
H         0.83483537807578    3.99691143466553    3.83396127306356
C         2.07611876154167    4.63999597127630    2.20604452588258
H         1.53202539277464    4.06935039359755    1.46794829753614
C         3.14798109794821    5.41852189038354    1.81533161662773
H         3.41490134032985    5.48048146824160    0.77050580836710
C         3.86791596542228    6.14007921102624    2.77023733416375
C         5.10030490567664    6.85283865283608    2.43133598019934
C         5.96167092922368    6.29163088848910    1.47969898979767
H         5.66307266515776    5.39669584489812    0.95901251154745
C         7.19765848885042    6.85666585841103    1.25591736536557
H         7.87882819047016    6.43708083577614    0.53071754121559
C         7.55908979320840    7.96132244249142    2.01143029926996
H         8.53174538902877    8.41559675681936    1.90364357457971
C         6.64750197828558    8.47190380445220    2.92376860189137
C         7.01999559967801    9.63244518286163    3.79585912650871
H         7.16612544592568    9.24877238380384    4.81208089088505
H         7.95065734167821   10.10139417826305    3.44695375333958
C         5.66185299138239   11.17559916689244    2.53423415659669
H         5.91715871920284   10.42647673188563    1.77679668678289
H         6.27395648689070   12.06808416336764    2.35129463859580
C         4.20078433448732   11.48739601491571    2.38970944923370
C         3.74980904189801   12.57419537904168    1.66832953883218
H         4.46359882290488   13.24283951445358    1.21096289794856
C         2.38487430662624   12.79508244238233    1.54070285225162
H         2.01126436423985   13.64399493282175    0.99091405234391
C         1.52705845880171   11.88311281730311    2.13801003205162
H         0.45717674192929   11.98984875046065    2.06267841317516
C         2.05417509489156   10.82466574448352    2.84752224535001
H         1.40726947226938   10.10457155181676    3.32427987974822
N         5.93032203282444   10.60190951122280    3.85674693951853
N         3.94428991512060   12.03001720428809    5.31263059554765
N         0.56973915544602    9.18318665683387    7.71793172109944
H         1.24140861788974    8.56117083177150    7.27185061571741
N         0.54719300858561    6.55264582406217    7.76505075709492
N         1.90804467736460    5.48753095763297    5.78995349306032
H         2.01041968323239    6.42495125241068    6.17388674046077
N         5.42873205439415    7.95930343783293    3.10850818982424
N         3.36947796955911   10.62312737702288    3.01264390169949
O        -1.11420236918327    9.24784565225526    9.26068137395545
O         0.97714449398241    3.44299321315457    6.21369088999098
Fe        4.15092894094959    9.65850840858375    4.45255504473167
Cl        2.29544144177601    8.63610622599303    5.00549916713482
Cl        5.13557200006980    8.94217317905541    6.23989702873729

