32
CSD_code = WIJSOA | q = 0 | S = 0 | Stoichiometry = C11H15ClN2O2Pd | MND = 4
C         9.31233311994426    5.94662793235928    2.62656091155565
C         8.58079722872789    6.95261158104698    1.93633794320991
H         7.52029546018049    6.99530244177801    2.13340125109795
C         9.17755694694328    7.82259371212448    1.06985579737503
H         8.58407679655859    8.57301940642914    0.56816102601139
C        10.55483080585743    7.75157150404499    0.82409400282529
H        11.01914632375660    8.44204583899344    0.13727826193725
C        11.29719052129375    6.79901288174485    1.46286489773369
H        12.36134389575549    6.73330643513272    1.28006652457540
C        10.72337672075662    5.88111728205579    2.36989439914766
C        11.59027601461809    4.92818740287920    2.96846947801176
H        12.63271358346704    4.95810860189551    2.63700979407400
C        12.20822947267954    3.07160606415215    4.33641674042923
H        13.23153945109432    3.47089304511529    4.32172246408737
H        12.17630589732492    2.18947552245903    3.68174675659448
C        11.80715323047401    2.67013081497684    5.76300554032268
H        12.39610809491742    1.80417219759092    6.09475455500787
H        12.01090181443529    3.51112797951155    6.43515318960388
C         9.95126512941803    1.04653248375147    5.37180560515829
H        10.81652421584689    0.45181078280256    5.06638749371259
H         9.26021067429065    1.13214098509614    4.51779523553502
C         9.22144903851720    0.35033463436656    6.55095896966909
H         8.50410194947512   -0.37940728948096    6.15639043024992
H         9.94487063061030   -0.18117115918336    7.17864583566453
Cl        7.44804796176670    3.37078963935753    5.51739722326595
N        11.25308928206760    4.04672647764102    3.84780979136560
N        10.36886616426414    2.39519300498148    5.80351390499509
H        10.00704277903554    2.48441212942283    6.76757024329125
O         8.64350450017477    5.17625538730344    3.40698119237722
O         8.60500584303507    1.28042025095465    7.39006670768178
H         7.95890617246967    1.82037374954789    6.87236387167021
Pd        9.45024028027199    3.80427827902570    4.60941996176024

