43
CSD_code = WIJSOY | q = 0 | S = 0 | Stoichiometry = C16H21Br4PPt | MND = 6
Pt       10.83425937553177    0.17931530477398    2.89986586698722
Br       10.15509101874435    2.05703589274229    1.12361221125735
Br       12.69048105617189   -0.49925899389741    1.28272578767596
Br        8.79902258110321    0.63127969836233    4.29409360877811
Br       12.25840449668318    1.90036745608749    4.20007467294672
P        11.91992963345900   -1.36300846398798    4.24445563702113
C         9.53499644700489   -0.99403978263414    1.79643184048216
C         9.09001200273280   -2.19293721932844    2.27975652675919
H         9.29266312019565   -2.48310777038114    3.30230794329202
C         8.34501149721281   -3.06754597243083    1.47226738615360
H         8.01811674154713   -4.00973138946993    1.88507401193604
C         8.06023276566664   -2.73181807785311    0.18102918350479
H         7.52022442492977   -3.41096469011582   -0.46113837633882
C         8.10145974839542   -1.09137106115399   -1.64832817564619
H         7.57796787245361   -1.80306212410217   -2.26906831875180
C         8.41397796993328    0.14938102730157   -2.12659889729166
H         8.15679856223480    0.43540980790993   -3.13441386290632
C         9.04756209478599    1.08129288094799   -1.29504073766122
H         9.25170103700268    2.07837447569390   -1.65229828572147
C         9.39448298018131    0.71997423108283   -0.02324401521757
C         9.15188284159374   -0.56817192732253    0.50477621278986
C         8.43707538965934   -1.47562343382300   -0.33415367180556
C        12.03884028253806   -2.99269403410356    3.36920915870181
H        11.39663510703113   -2.95853091555196    2.48694088016969
H        13.06751307345521   -3.05451392942041    3.00405600673971
C        11.69167596135689   -4.22564907438928    4.19410117002606
H        12.34079026854210   -4.33325144724931    5.05937626858874
H        11.81635387732380   -5.10946235410994    3.57140098277911
H        10.65900471451695   -4.19982772451027    4.53331497852015
C        11.01676315715247   -1.63858574218164    5.82255434568134
H         9.96006208563093   -1.78442994512528    5.58290320355885
H        11.40451082861292   -2.56354454420159    6.25598073111746
C        11.16351157998912   -0.48985645927918    6.81330009816082
H        12.19178076658127   -0.37835813926976    7.14698516759837
H        10.53893709275083   -0.68168379173516    7.68245479820832
H        10.83976944212341    0.45087605029698    6.37610894699917
C        13.66016938140447   -1.00969815567754    4.72104859259876
H        14.21004451218757   -0.77237747319219    3.80625929585030
H        13.66374737732680   -0.11667313848435    5.34716122059540
C        14.32785740275174   -2.16547894459699    5.45728980091932
H        13.79659094130002   -2.41646694326552    6.37261922590571
H        15.33643992022982   -1.86258563083621    5.73063789152618
H        14.40684856997716   -3.05539753152410    4.83811068751531

