72
CSD_code = WIJTIS | q = 0 | S = 0 | Stoichiometry = C37H32ClNPd | MND = 5
Pd       13.13623840079812    1.81092685503132    3.40628705282003
Cl       14.53852300858591    0.07955467095416    3.66836740728733
N        11.58613606112298    0.80865665172615    4.72866595282815
C        14.47753006702174    3.01817403081591    2.52415683066093
C        13.77813224272324    4.15549814961479    2.63579292410514
C        12.41941214539590    3.79892641821858    3.18541611352013
C        11.60482162679545    2.96682437358228    2.43158226333487
C        10.16773577436120    2.70317736556145    2.70717730559829
C         9.63315611853516    2.12615288605644    3.86886609732559
C        10.45484225482065    1.68496127511097    5.05317107574386
C        15.76944392925908    2.69917329536483    1.95893814460459
C        16.83563386870217    2.29255802600004    2.76547601251679
C        18.05363042130089    1.97437744340795    2.19900773841799
C        18.22589500338430    2.04488324187932    0.82561244985288
C        17.17139306956391    2.43966666818493    0.01786974731921
C        15.95044315559477    2.76590103738537    0.57397921066622
C        14.14554703456578    5.53567524405691    2.34581292326952
C        15.47608607542449    5.89793749555115    2.12969582353603
C        15.80826895040347    7.20757745579377    1.84528142417921
C        14.82485227355966    8.18152150198064    1.77463150840062
C        13.50208133853999    7.83455103772026    1.99224980773830
C        13.16391383406874    6.52543674894821    2.27512870518270
C        12.03750239907857    4.41486451274445    4.46689477911441
C        12.92449026964668    4.28902452933490    5.53987646965955
C        12.61756456737974    4.84582565004367    6.76667012212797
C        11.42930767839224    5.54068744064145    6.93534053777246
C        10.54888737042957    5.67331339327862    5.87461936124385
C        10.84709602688721    5.11465619632398    4.64450397030615
C        12.01296970622338    2.65869616788429    1.01977411144794
C        12.18672529419994    3.67238500182979    0.08179621929919
C        12.56308031032952    3.36846616491723   -1.21508472312063
C        12.77049302788641    2.05241697291555   -1.59102704325824
C        12.59527258876830    1.03558935613351   -0.66604758578085
C        12.21177071163669    1.33148279124338    0.63002221516286
C         9.28535596275712    3.06753275215880    1.68425714077776
C         7.92120812206632    2.89760212970381    1.79792244304304
C         7.39751580392281    2.33322890524436    2.94715853190111
C         8.25564233752710    1.95084757258405    3.95921452752751
C        12.30523331263823    0.50812014597291    5.97018691677846
C        11.10311993516207   -0.43782122607321    4.13560217655348
H         9.78626871349682    1.15943976032221    5.75681862283986
H        10.84512939616191    2.56787343804681    5.57286023142168
H        16.69234824337702    2.22444943133813    3.83549273407860
H        18.87243604464233    1.66167865121781    2.83064723820798
H        19.17809259203385    1.78701749254837    0.38541615089281
H        17.30091278994374    2.49129909373430   -1.05382234314474
H        15.12353544805460    3.07142580417431   -0.05124064515311
H        16.24706762943972    5.14533707206872    2.19173390163796
H        16.84255634244874    7.47269283771455    1.68020941259617
H        15.08822540674478    9.20520691421492    1.55293984531962
H        12.72925395542027    8.58832924097085    1.93978488060624
H        12.12805025221865    6.26484572869316    2.43970903211612
H        13.85520379010429    3.73524377751153    5.39682955148797
H        13.30451847926752    4.74104544902544    7.59377570884837
H        11.19041318065158    5.97723774242184    7.89352213276838
H         9.62341099412887    6.21461481350294    6.00476510504570
H        10.15612890222076    5.21762610419170    3.81967259353097
H        12.04149487161941    4.70317282555590    0.37300214160403
H        12.70076547418894    4.16616152632704   -1.93055990900375
H        13.07398304428170    1.81935246270731   -2.60068130262505
H        12.76366366627701    0.00845162969962   -0.95328879421179
H        12.06760156821541    0.52066100123341    1.35027282443110
H         9.68707657624679    3.50849235533538    0.78394379823899
H         7.27230522753492    3.20152554312955    0.99051853299546
H         6.33364080318068    2.18556830499178    3.05307282924176
H         7.84575694608879    1.50108673819493    4.85273199205461
H        12.70794422649768    1.43147969151528    6.39725192166926
H        11.63731041735103    0.03565064407478    6.70503527426150
H        13.13329156081799   -0.16705474724447    5.75080666050866
H        10.50575024781492   -0.21964427911008    3.24781457006548
H        11.96010082209726   -1.05301744927736    3.85519975601423
H        10.47831030797130   -0.99707992865853    4.84671886219061

