63
CSD_code = WIJVUJ | q = 0 | S = 0 | Stoichiometry = C32H22N4O4Zn | MND = 5
Zn        3.07938352766714   11.44575227541977    7.87642563025827
C         5.81077864605516   12.60169271397655    5.22539401590696
C         4.52287293075168   12.12947231617370    4.90379357869998
C         3.87607736022990   12.62090361175211    3.76956741183723
H         2.87220889480718   12.27552408627100    3.56855584066505
C         4.47341286903006   13.56661000671988    2.96192395012667
H         3.94874016341157   13.94924302616217    2.09956662010536
C         5.75004550307796   14.01538954454791    3.26380971588039
H         6.23226383511132   14.74548470795226    2.63137083950169
C         6.40618047559038   13.53682059114790    4.37929171785529
H         7.40025267119249   13.87347146771251    4.62864098175924
C         3.39394499688807   10.13176260118152    5.20297084983798
H         3.50556371988469    9.88834363682836    4.14388856706992
C         2.64984118927487    9.22712513199161    6.04122412526557
C         2.06417783277546    8.00976707526012    5.62623400188547
H         2.22291744118108    7.66006549572273    4.61659325703380
C         1.30401752949858    7.29751696101829    6.51314587360248
H         0.84462116866986    6.36466704910898    6.21787761592830
C         1.09004924069772    7.77679546881016    7.82939653780731
C         0.30311854231782    7.17349601863585    8.80878382754431
H        -0.20030318702433    6.24230130886884    8.59871802153505
C         0.17463742773086    7.78442578832647   10.04566655374692
H        -0.43685724137864    7.30428623941727   10.79754620702434
C         0.78186643275538    8.98826141967001   10.36456201450669
H         0.63902342988639    9.42835722766558   11.33955264384842
C         1.58488284141380    9.66434559478085    9.43211525312844
C         1.73624793518771    9.00420575588002    8.15248086390977
C        -0.14292387901298   10.66121495527547    5.63121418291139
C        -0.11424561031230   11.25920341761421    6.90143814172875
C        -1.01335866436437   10.82123286997558    7.87154231703860
H        -0.96829818709694   11.27022766049796    8.85215503587225
C        -1.89286631925786    9.78806543734222    7.60871204319417
H        -2.56206259633025    9.44536883653891    8.38207947965071
C        -1.90618884162410    9.19449800234357    6.36007827769406
H        -2.58771265037907    8.38574356135877    6.14703589910568
C        -1.04255721760024    9.64049506879817    5.37343705380479
H        -1.05803550479741    9.18586995206315    4.39126554622443
C         0.65725223205915   13.30206928772625    7.73984450181559
H        -0.34727577877153   13.71759701640188    7.85284774884778
C         1.77711761219798   14.06198222231007    8.24483105382960
C         1.71533127184503   15.38784944557151    8.72707252178024
H         0.78387069479835   15.93097197739982    8.67303602166275
C         2.84227912389583   15.96013640598025    9.25297723354502
H         2.82094145182791   16.97513907821964    9.62395852039207
C         4.05008853384544   15.22637425995983    9.33738075666128
C         5.25462536538415   15.68506980112785    9.87416995394112
H         5.32142819178818   16.68925203374616   10.26410552881317
C         6.34914498583146   14.84060888643523    9.90249860848412
H         7.27727153465017   15.20649729173770   10.31902499916608
C         6.31035176784072   13.53641277590667    9.42554805317391
H         7.18930815363554   12.91296730633228    9.47347966714507
C         5.13689810706660   13.00481223474475    8.88529420169303
C         4.00455235559197   13.89418408632273    8.83305442351124
O         6.53444325878342   12.13685700821404    6.25419839209105
H         5.96566895590457   11.76527029654163    6.96947914739773
O         2.14639147882364   10.79137324256151    9.61629317495146
O         0.70462831169796   11.13522016390502    4.67401539503299
H         0.55465192841742   10.65184966213313    3.85149518689325
O         5.01541152481510   11.80808715428586    8.42253965049536
N         3.89469226498758   11.19095907081484    5.71331823765964
N         2.48180879004805    9.65211271420914    7.27939469245732
N         0.88064646899187   12.16372435076139    7.21578122050599
N         2.90915470812467   13.38561534384688    8.29670661455895

