31
CSD_code = WIJXOC | q = 0 | S = 0 | Stoichiometry = C6H8Cl6N4O4S2Zn | MND = 4
Zn        1.45977707219964    3.46251163288162    1.59466017073668
S         3.41117110223114    4.40198180858729    2.78901484082566
C         2.67359391605678    4.49549291623834    4.31022619811141
N         1.45088737942630    4.98406440614345    4.47339986366437
N         3.39557148849529    4.15451818389016    5.38041217395306
S        -0.32554849518541    2.27317322959328    0.37503763763396
C         0.66147151953997    1.49657300600419   -0.75815422997783
N         0.31273055923025    0.26956353383235   -1.15638460704226
N         1.71201271407387    2.08716487675995   -1.31223436018281
O         1.22436366310618    2.24281960800294    3.30977733574994
O         2.44349714125882    1.55973225453377    1.61411467760753
C         1.96458224734159    1.43013935052219    2.74401075921952
C         2.37082587158731    0.18706475046551    3.54835962772271
Cl        1.07445434241426   -0.31298995081340    4.62384177050561
Cl        2.82932326366962   -1.12861960498250    2.48279702009503
Cl        3.77206050565449    0.70012001487906    4.50291727250674
O         0.47896315740355    5.33064397706310    1.70471747901335
O         1.67022712835116    4.80610312263420   -0.05973372322151
C         0.95361171154174    5.57668867672380    0.58787939288474
C         0.58053676210264    6.91488041807129   -0.05601057143838
Cl        0.30350135913009    8.13645784166716    1.17482365089848
Cl       -0.92537011627868    6.59529832604613   -0.93816193117427
Cl        1.82859924550123    7.44319152932039   -1.17182795064799
H         0.97280566062632    4.90437727974111    5.35691193378745
H         0.89901325174247    5.21648657759300    3.65757844528227
H         3.00637217654868    4.16139611748099    6.30884651574661
H         4.30884903433834    3.75883166618679    5.23523833997636
H         0.85088150480744   -0.24595216330942   -1.83290512080600
H        -0.48662763954855   -0.16328446425737   -0.72717137189467
H         1.96905929986903    3.02094244048896   -1.02277382362607
H         2.35930317345452    1.57312863820918   -1.88820741630622

