37
CSD_code = WIJXIW | q = 0 | S = 0 | Stoichiometry = C8H18N4O4S2Zn | MND = 4
Zn        7.49159891580516    3.96093047192311    3.36295249971969
S         7.26480511720649    5.09496331598909    1.09702922859665
S         8.97249056921576    2.03422240449087    2.59431521305415
O         8.88914570640899    5.09331601710087    4.41309961569051
O         6.80028659871457    5.71532663390752    4.40966396614605
O         7.01031821796924    2.75131486470858    5.02231660315674
O         5.62645154316164    3.07991999717601    3.36961064287702
N         4.90616208150857    5.02585632639943    0.00761834385585
N         4.94370915946011    5.71647688260980    2.20364514099378
N        10.02592351573242    0.35931323837093    4.27208940078729
N        10.01239685448389    2.54739233848380    4.98119993462570
C         5.59076159918695    5.25918737204590    1.13663396798458
C         9.69361839938128    1.64478348652769    4.06152219967532
C         7.97377177324345    5.84908651672706    4.81121572637500
C         8.29454331375108    6.97258156377691    5.78024671088960
C         9.58159215202450    6.72769288502886    6.55422785744456
C         5.90022443314322    2.57256507480646    4.47910117528368
C         4.87149438933525    1.71388093833964    5.19611471787270
C         3.62639715426446    1.46341292571128    4.36022469787738
H         5.41313301413045    4.67955087163688   -0.78773131421466
H         3.90223397347097    5.08000826653938   -0.02777063936273
H         3.94329013845809    5.61771587399985    2.27231159461635
H         5.46232217613118    5.79710709295559    3.07189003279766
H        10.55314876438736    0.07259078906042    5.07945950987049
H         9.85831454117987   -0.29815484522296    3.53129540097865
H         9.67156203156118    3.49901648704314    4.87415573206425
H        10.28676180562567    2.25285299004707    5.90476389302309
H         7.44152009121138    7.09578147721482    6.44928668920721
H         8.38106018434067    7.88265987558845    5.18057287333150
H         9.81400695623575    7.58447669968089    7.18283033871472
H        10.40414999040188    6.56193855966788    5.86333235481054
H         9.48149883642752    5.84806827557098    7.18624001664590
H         4.61915017357073    2.22634848872798    6.12731048271725
H         5.36065279622434    0.77465306913132    5.46254459456991
H         2.92572297429775    0.83201908704170    4.90272861267679
H         3.89380698618564    0.97450526935463    3.42689991043164
H         3.13977307217728    2.40523841784878    4.12035227421575

