41
CSD_code = WIJYAQ | q = 0 | S = 0 | Stoichiometry = C15H17N5NiO3 | MND = 4
C         1.79298378718038    6.25790740520965   12.21456695932670
C         2.92171102075570    6.47572553697556   11.30465970518748
C         4.04334431132844    5.64738555242845   11.37660493490031
H         4.05745728231091    4.85480637640836   12.10865894107078
C         5.10836112872744    5.84039924490466   10.52946272387343
H         5.98205543347984    5.20929303122592   10.57270329121542
C         5.08237037036398    6.86949486022502    9.58319298998354
C         3.96483638392359    7.69817963056206    9.50740351720305
H         3.91756049097652    8.49947454427532    8.78665334999339
C         2.89825845894101    7.49908422630549   10.36197931716973
H         2.03126503645815    8.13794445375239   10.30726544613762
C        -1.31640439109567    7.32455625154789   13.19319031750739
C        -2.12032046939706    6.73313228380063   14.23560754263883
C         1.67038900409776    3.04348946396497   15.27533935678780
H         2.49517506142661    3.21342886525754   14.61008476439438
C         1.51782245799420    2.07495060211582   16.26516137388090
H         2.21547510130339    1.31216947163562   16.54200687057715
C         0.27044979067125    2.31428781409395   16.81142083410917
H        -0.25389624014385    1.81156557444704   17.59859741268583
C         6.22600107927774    7.98838179860810    7.82001817108514
H         7.18819759308629    7.87853482496423    7.32222472171071
H         6.16463115278874    8.98368846623002    8.27160812129379
H         5.42356997764538    7.87201897051003    7.08450142410028
C        -1.74292559125895    8.50490524386392   12.38836112567420
H        -0.95981106600580    8.74863579437329   11.67582738947771
H        -1.92345880845014    9.35975087267530   13.03818893290390
H        -2.66616767879748    8.28502139511955   11.85465223520163
C        -3.47392419070362    7.24088954120572   14.61651274346435
H        -3.86094008331202    6.63286298552055   15.43055053522037
H        -4.15653617474568    7.18224301111533   13.77014453793120
H        -3.41618402360190    8.27895133698160   14.93989830675162
N        -0.17626595765026    6.71673348551687   13.02901065727060
N         0.74772634950386    7.06678196943013   12.12736465662884
N        -1.55730167222148    5.70399953254828   14.82203088185911
N         0.58298139782990    3.81199341307212   15.23383787796521
N        -0.25299448687926    3.35837636052956   16.16746390990839
H        -1.16703896433885    3.87239002803920   16.25764933023893
O         1.83724562001329    5.30226016092276   13.06651881668551
O        -2.15025744430212    5.06723045346463   15.77065433573792
O         6.18420543670551    6.97476273637623    8.79520157045660
Ni        0.17095351611431    5.29421242979680   14.12012006979066

