101
CSD_code = WIKBOJ | q = 0 | S = 0 | Stoichiometry = C35H56AsN5Si3Zr | MND = 6
Zr        6.54192107418435    3.20019357218644    4.00977145966462
N         8.05754278437695    4.69343624654093    4.09698799902579
N         4.53387802126005    3.49389339628055    4.57818596409625
N         6.57880129938973    2.33664151633173    2.09763485941095
N         5.62350746468661    4.93023805457979    2.48587984870092
N         7.52308768774904    0.61586941192474    4.74179707545585
As        7.15173896681514    1.66389261770186    7.45755881839886
Si        9.45517404353667    4.96168337201966    5.04291936020941
Si        3.37153442119200    2.25945141729713    4.38154659980541
Si        7.96469268396832    1.59353987681633    1.44094586967041
C         7.97272938896101    5.51196835887555    2.89961380186408
H         8.28034669935854    4.92727575782381    2.01206161897072
H         8.63696496505574    6.38772815236823    2.94900209563093
C         4.09478782936263    4.85769199048028    4.37910857385050
H         4.69842718331681    5.54516712383498    4.99108041883481
H         3.04470183643855    5.00535042513760    4.67171784178800
C         5.54611650773002    2.85134959111704    1.22877962702678
H         4.55291201464909    2.60773861222496    1.63736905415003
H         5.59849175012667    2.43021015476165    0.21490144675633
C         6.54550871101529    6.04200032679790    2.69529457060341
H         6.25680678233628    6.57449267513630    3.60958359712380
H         6.51524770012504    6.75585016653693    1.85288380305045
C         4.25571182297535    5.24429905099524    2.89762073793234
H         3.56070946339306    4.63483649796770    2.31644396128907
H         4.01413029887148    6.30615996731163    2.72860044065022
C         5.67894859511506    4.38357157066411    1.12902892098406
H         6.65214045193840    4.60403690627752    0.68267354571622
H         4.89819805340120    4.81911862586641    0.48567532085354
C        11.09089312661389    5.12560537211136    4.04623289062792
H        10.97663976702901    5.79803486707106    3.20112187833569
H        11.41981356782436    4.16627589656004    3.65962924736729
H        11.89037251912125    5.51929404017451    4.66569835947511
C         9.33610816358672    6.59505479809843    6.06733718560044
H         8.53769384104805    6.55655620520298    6.80325846711891
H         9.14815229332944    7.45174494627410    5.42538442678002
H        10.25894661491870    6.79087375746016    6.60330035960534
C         9.74081740053770    3.53363144176435    6.27783217768258
H         9.20288962839003    3.68693594784297    7.21211256383853
H        10.79440420442847    3.46762857903748    6.52417130080445
H         9.44656430002186    2.57309839634679    5.85655639813964
C         2.20571250587874    2.13922124450905    5.91714490472259
H         2.66465464796311    2.54708911134139    6.81293799243647
H         1.90912954317166    1.11653636281005    6.12558408348301
H         1.29524213827964    2.70484901405301    5.74176440425005
C         4.33633529613180    0.65290356918678    3.98137801358986
H         4.71918600712171    0.16168962215030    4.87058651406099
H         5.18643779070911    0.86510801621964    3.32395792630641
H         3.68936418608457   -0.06214851525389    3.48224197415886
C         2.05139954655812    2.43627143271215    2.97265680464310
H         1.56911784964868    3.40976379285940    3.01213879933122
H         1.26933719127123    1.69283562926752    3.09641659880319
H         2.45581277016808    2.30764188179016    1.97225992469423
C         8.41813690211436    2.17369791287752   -0.34319507538885
H         8.61810221780560    3.24064065893856   -0.39067334776980
H         7.61445682648493    1.96079311506282   -1.04139067949248
H         9.30242670280192    1.66174586050536   -0.70735328193218
C         7.76598728459234   -0.31424495309470    1.29028549290150
H         7.44989243462669   -0.73936491738206    2.23703683510244
H         8.69385768320487   -0.79288354356008    0.99433765425721
H         7.01591671893122   -0.57354498697876    0.54850901207374
C         9.44915614127070    2.05445189839068    2.55561049050092
H        10.03517939752640    2.86192078787579    2.12792234810832
H        10.11560890964492    1.21275835557435    2.70249573011201
H         9.08772823833347    2.37594900475217    3.53418361878101
C         7.11973291852976    1.59052705998686    5.42470846692121
C         8.06320624894788   -0.62109274085442    5.27650874814997
H         7.68910271347163   -1.44208122091052    4.65776718231321
H         7.73548556186046   -0.76432495113813    6.32366436902635
C         9.56412855492258   -0.57088926554427    5.22813033679161
C        10.27600137826946   -0.05217910861977    6.30396649115891
H         9.74180567838089    0.26110150460891    7.19690660886392
C        11.65385268152302    0.05632825026751    6.24636629514479
H        12.19454554948251    0.46261849833965    7.08814620765746
C        12.33835462501105   -0.35894860763404    5.11656991211559
H        13.41432551732526   -0.27631210003240    5.07239421514064
C        11.63731090456092   -0.88755966094186    4.04594932954224
H        12.16686596729894   -1.21950322967659    3.16443135700373
C        10.25849080166679   -0.98990193959830    4.09955454594411
H         9.71414120660537   -1.39809849691937    3.26180318863324
C         5.91873680986682    3.15658560363882    7.56654689898271
C         6.25366757474289    4.33201427229024    6.89580247761483
H         7.10737056591508    4.34619057466335    6.21723624229518
C         5.57094066957553    5.51194958268502    7.15654486680820
H         5.89743638757766    6.43686580032297    6.69534051030330
C         4.50234062445187    5.52188678637920    8.03771547999192
H         3.96494487837569    6.43844029123914    8.23405892236327
C         4.14391984541311    4.35181609694075    8.68710904569335
H         3.31691309102534    4.35340820314508    9.38349670823097
C         4.86719949029401    3.19230019873754    8.47849380444876
H         4.61812823037281    2.29967849393344    9.04016634294993
C         5.94778739846766    0.18246957516007    7.95313051133313
C         4.62771952045489    0.11538448442248    7.52794647960496
H         4.23105139881064    0.91542812977709    6.92063718581019
C         3.82417044931343   -0.95456169192847    7.87899599672432
H         2.79859931062980   -0.99000656215376    7.53844563951973
C         4.32931977841505   -1.97749852472069    8.66346602612272
H         3.70149497155773   -2.81252692758797    8.93850267573248
C         5.64460018219614   -1.92343752862727    9.09864412567737
H         6.04179695758603   -2.71698754253392    9.71565767103308
C         6.44473403900787   -0.85232935032977    8.74774410245754
H         7.47684465978625   -0.80135399545674    9.08811180741335

