97
CSD_code = WIKCAW | q = 0 | S = 0 | Stoichiometry = C31H56AsN5Si3Zr | MND = 5
Zr        5.50978000266545    4.69618465892803    8.51621070431013
As        9.46658324160876    4.55605038165906    6.05525484393752
Si        5.07138422155398    2.11650181492082    6.37804563996903
Si        6.88345686511487    3.84539853167187   11.47510057693475
Si        4.12514839110834    7.73577859414108    8.26766649000253
N         7.22221827992951    5.37231402901514    7.58522389258624
N         4.14119181718545    6.09879923408311    7.76692376114201
N         5.82430082684985    4.84631715838664   10.58478669963756
N         3.32844249502722    4.03340220942547    9.52606423233686
C         8.87544599222439    9.23006733597772    7.09717507893167
C         9.83071272528934    2.64843716144268    5.79682796775989
C         4.59662124237726    5.29299039996131   11.21228762305585
H         4.28901385747753    6.26358048183887   10.79450741520485
H         4.71198711073206    5.42257783305724   12.29904673337285
C         9.67652739028636    1.70402251969147    6.80923083701023
H         9.33161301291818    2.01887018791569    7.78630331554305
C         3.47071648027579    4.26840370349656   10.96554267382496
H         3.76485095006625    3.33495650143498   11.45144053682848
H         2.52438269077646    4.60681760183396   11.41555934273575
C         4.51752477953108    1.96328726845051    9.02358619347905
H         5.07182954968551    2.01423316137915    9.97317428923541
H         4.37255346002148    0.89962978978811    8.78303737160473
C         7.76957891791122    6.66787933219853    7.40657825872522
C         9.23419607602295    8.42639307967031    8.16980065888299
H         9.94567667112884    8.79640372307742    8.89478582009496
C         7.42044073655881    7.46027760901320    6.30488769481711
C         6.45870510541369    6.94742890362268    5.27808644675352
H         6.25967990688286    7.70759881136018    4.52663234241919
H         5.52003108528834    6.66628619594978    5.76114378858197
H         6.87838953739946    6.07296927090524    4.77864198609118
C         2.32693508419959    4.89207646700833    8.89110240279792
H         2.14106671309400    5.76029799490349    9.52583172905210
H         1.37341691460991    4.36143910289445    8.74429770875236
C         5.38743928779683    3.65681364021591    5.28942721216026
H         6.39699827314069    3.64645285084406    4.88781418257852
H         5.26109082710931    4.55765240900771    5.89916064791923
H         4.70757672986516    3.70837271517455    4.44496236640247
C         9.10641390313150    6.30201234126714    9.49337077076156
H         9.59252237958103    6.89740178271424   10.26232600565666
H         9.81013220381333    5.53445017763613    9.16234597293193
H         8.22625496742368    5.80506166753304    9.91154544417697
C         7.97150639702719    8.72665540486443    6.17531125631043
H         7.69370257537718    9.33289292486150    5.32387297849212
C         2.88479138102170    5.41191391512514    7.54810873622218
H         3.03803489154715    4.55406205438581    6.86880517872542
H         2.12658262098933    6.06627240681716    7.09024349640611
C         9.47595700085647   10.59367327522041    6.93162985340710
H         8.89788486223986   11.19073174178763    6.23062534958873
H        10.49354029804022   10.50865632001421    6.54980882561896
H         9.51965132309710   11.11477776377040    7.88616527077167
C         7.97014278114272    4.36629389024473    7.07146652168509
C        10.31945613130969    2.20243646610682    4.56805037052633
H        10.46443726388101    2.92597813000914    3.77246513019798
N         5.23786724412547    2.66993588302684    7.98484518130674
C         3.13648570821325    2.61583371524108    9.21296136077250
H         2.60075048258754    2.52724118127427    8.26491097897200
H         2.55032416104600    2.10389404969649    9.99287594562793
C         8.70465938390795    7.15736290258114    8.33169993480901
C         9.96211074386100    0.36834276077526    6.59574214034370
H         9.82793130679866   -0.34549372773056    7.39758275875877
C         8.03619741801965    4.84535555301717   12.65429968498390
H         8.09227341297586    5.89394754353819   12.37900478599510
H         9.04680605983860    4.44993019446080   12.64962851039673
H         7.67742200037338    4.79902655074499   13.67806017160246
C         2.60475812215177    8.31601753824687    9.31679554830642
H         2.55992891775457    7.86546032860923   10.30529624494174
H         1.67150688127318    8.09267788106572    8.80755765412576
H         2.63654083715858    9.39115843662061    9.46157880197461
C         6.27727183717160    0.69800744839727    5.91103212330472
H         7.31642352449745    0.99310494305896    6.02179962858503
H         6.13812655090560    0.38990227932315    4.87979300632012
H         6.12086867850929   -0.17703515499155    6.53552515802866
C         6.10902136397737    2.53655429422001   12.66931656291873
H         5.59898680938182    1.72547261575180   12.15584871813537
H         5.39473477245235    3.00181948312417   13.34360716953288
H         6.88082299223911    2.08720226891495   13.28682654186728
C         3.33209180403147    1.43999070094116    5.88188322154077
H         2.56462045582351    2.21034172430108    5.87125763072380
H         3.00892543364903    0.65983686731004    6.56502206667618
H         3.36003311589932    1.00181583513093    4.88971535413519
C        10.60936460437434    0.86956046744267    4.34856729875158
H        10.97847940449730    0.54779937534379    3.38427997979873
C         5.67601395002249    8.02808923446510    9.35636519778221
H         6.39187155665563    8.65938508173247    8.84257692803949
H         6.16754696362012    7.07998612545091    9.59921206939796
H         5.42283207733161    8.52887024233913   10.28610642252422
C         4.11822322348748    8.99090414871684    6.80814216641119
H         5.11907736543164    9.15944993129859    6.42800145676126
H         3.72670493952199    9.95163444286738    7.12576244256820
H         3.50371342536166    8.64711231791870    5.98133831113424
C        10.42542169904713   -0.05689391443039    5.36202747874790
H        10.64917310946986   -1.10064830981905    5.19420583055800
H         7.54707123765322    3.37315707427007    7.25396669110517
C         7.89727373952769    2.87122004800332   10.17409225496994
H         7.26815792079493    2.59495931246479    9.32403565155212
H         8.30023615070357    1.95940072887924   10.60417802917845
H         8.74013038426521    3.44867666971059    9.80728427909317

