60
CSD_code = WIKFAY | q = 0 | S = 0 | Stoichiometry = C28H24CdN2O5 | MND = 7
Cd        3.74455987407578    7.37128856128621   12.80239748427864
O         1.76098442655028    6.90466541917554   11.95640048089219
O         3.13812364890760    8.19384855216333   10.82858204164481
O         2.89840621936596    8.46145512326707   14.52478467742372
O         3.87934656364385    6.51841374269248   14.82709561367949
O         3.21904044318778    4.60708609504464   12.77625921660897
N         5.24358155810680    9.16826170372054   12.65768961248954
N         5.75764114464829    6.61301611813231   11.91251465378453
C         4.78931750422488   10.39159410108208   12.86479044404426
H         4.03608245179175   10.48522394357179   13.63729383450101
C         5.23875443519026   11.48999166793465   12.14462927176279
H         4.84378120482173   12.47394699834398   12.34242196717659
C         6.18970081115502   11.28609015439187   11.15826600147828
H         6.55033271982289   12.11014202217401   10.55988513776991
C         6.66750135771772   10.00451162048538   10.94210933055599
H         7.38766598622487    9.81631124315320   10.16141237164936
C         6.16997663297763    8.96178964411642   11.72213238808390
C         6.61878249998276    7.56621978495704   11.55216766327612
C         7.88303327417958    7.25440606490269   11.05182594281930
H         8.58223747456075    8.03624322295960   10.80035390496745
C         8.24018439347638    5.92469145861763   10.90828281992216
H         9.21510663620014    5.65988999153366   10.52591277066195
C         7.32696837365655    4.94647922655930   11.26549728841300
H         7.56257726231103    3.89937035296514   11.16259218142964
C         6.09550577427523    5.34257380494003   11.76979672401978
H         5.34624901450517    4.62019134254598   12.06651099987112
C         2.02372933457670    7.63518614176250   10.96582676630899
C         0.97196853473460    7.81019112978810    9.93483289972000
H         0.04624684250756    7.29319221706492   10.13706370958940
C         1.18097631523442    8.55512335258024    8.84620420416054
H         2.15586443993402    9.01963361433604    8.75194789347992
C         0.25074224619297    8.80861039307366    7.76028890701722
C         0.68686844692532    9.54378417311699    6.65513107060893
H         1.70438369646180    9.90772515602885    6.63391814169680
C        -0.15943403010685    9.80533582444150    5.59523806794082
H         0.19687366131232   10.37385328939169    4.74827745577115
C        -1.46412030525384    9.34064919398823    5.61755915059906
H        -2.12790652497542    9.54475124259920    4.79035545718556
C        -1.91368377968493    8.61373149395758    6.70843020757841
H        -2.93146166877672    8.25205133598383    6.73069019420074
C        -1.06840879954539    8.34916515057678    7.76797391453018
H        -1.43357777572871    7.78534518232580    8.61186981309735
C         3.25149235658774    7.51837251903546   15.26922112009777
C         2.94004771154804    7.55779998232926   16.71845817315203
H         3.30727517247967    6.71611515983237   17.28583745097166
C         2.25254176150854    8.56927729618709   17.25562579232539
H         1.93070240528861    9.35417091303291   16.58108946626426
C         1.87858800888435    8.73997868051668   18.64809205597214
C         1.13964726387715    9.86802533003993   19.01448804690947
H         0.86204025083829   10.58487268374916   18.25479734424498
C         0.76078528923484   10.07524287180535   20.32653505996497
H         0.18897056932289   10.95324083693539   20.59038009966604
C         1.11273443501960    9.15867913780555   21.30371464877810
H         0.81754884663643    9.31851132134378   22.33030947492606
C         1.84581903962671    8.03469381382054   20.95683355311920
H         2.12203559617992    7.31748320762593   21.71636292951045
C         2.22547036370318    7.82562372005230   19.64567216398648
H         2.79632099899367    6.94630141327237   19.39121150431446
H         3.29002009527021    4.80958560646623   13.71906366883049
H         2.36715751560791    4.96979465440909   12.49869477023523

