45
CSD_code = WIKGEE | q = 0 | S = 0 | Stoichiometry = C22H17N3O2Pt | MND = 4
Pt       -4.54261226483227    9.71817478757524   17.20133750377257
O        -5.06377642724175   12.47290522714271   15.48891122343778
O        -4.12503279545813   11.24938871314008   20.18622986605777
N        -4.21162758327641   10.30851562946413   15.23903642200137
N        -4.90904684238594    7.61763668618919   16.93645332074268
N        -4.84620969288573    6.96858633192301   18.11670503904504
C        -3.61612415030577    9.43100254442730   14.42048344729167
H        -3.26982362030444    8.51768742660537   14.88701136990580
C        -3.44406121180817    9.64887673753866   13.07425778717473
H        -2.95385091241288    8.91144890185535   12.45998515742681
C        -3.92984289898007   10.83630418717909   12.52655548476948
H        -3.84351046968328   11.03110070990961   11.46865556073573
C        -4.49674333312737   11.76483242650715   13.36373433385555
H        -4.86093893483536   12.71523481519538   13.01010363077506
C        -4.58796429520409   11.48881943147564   14.74148605825853
C        -4.57032769435096   11.62421001603600   17.78101283635504
C        -4.89051862010553   12.63686176153153   16.86770601248269
C        -5.07321108734771   13.96666141948696   17.23584518231556
H        -5.32611597031248   14.68540514292421   16.47228197446987
C        -4.92252090260669   14.33674239126829   18.55639457144553
H        -5.05639154624638   15.36588848589454   18.85150692326299
C        -4.59990287494082   13.37860956324800   19.49257311807612
H        -4.47641102257669   13.63218422581932   20.53389487250699
C        -4.43906072870191   12.04279684757029   19.11905451965679
C        -4.46203950619554    9.10495498483633   19.07495992152092
C        -4.11222107239010    9.88930082067650   20.17442918120728
C        -4.01391473797608    7.11712358193284   20.42846884311087
H        -3.91373573652714    6.05049610753744   20.52533550383770
C        -4.42605766617570    7.70883985478796   19.24391554060132
C        -5.37433130164294    5.72782562742964   18.00682440066841
C        -5.78012852999039    5.58781957664811   16.69404356132664
H        -6.24742309948546    4.73016185046332   16.25470662581382
C        -5.48353860928783    6.79839569665342   16.06154499854895
C        -5.54613826624518    4.74286723157492   19.10439684472684
H        -4.60061108040798    4.26753955992440   19.36561466406455
H        -6.23226201191111    3.96699783180106   18.77244872213562
H        -5.95630303766999    5.22043750359735   19.99261243561856
C        -5.78946708224652    7.15648053627251   14.64982101202253
H        -5.96128918171145    8.22588321473592   14.55366494259911
H        -6.68408402231856    6.62627091643349   14.33036348690647
H        -4.97329866211175    6.87152262672331   13.98553058837720
C        -3.74485275625365    9.30261318241886   21.38901956473343
H        -3.49460574460255    9.94390943843833   22.21960879497755
C        -3.67791260769704    7.93078613223472   21.50019598341827
H        -3.35845940722202    7.48089931497319   22.42807816796152

