40
CSD_code = WIKHUV | q = 0 | S = 0 | Stoichiometry = C18H14N3O4V | MND = 6
V         0.27843890229690    1.27813856958372    8.30564137175717
O        -1.18136501345769    1.46541769454073    8.71026816838403
N         0.88530738077730    2.39718280684512    9.86711961439923
C         0.92459966887645    3.72322879494480    9.89841829272992
H         0.57654919714796    4.22893806777962    9.00537206423905
C         1.37801328833844    4.42338622245235   11.00069495198166
H         1.40657025712125    5.50027455877837   10.98707777497660
C         1.79611813172482    3.71151745916490   12.12288289441734
H         2.15647898700801    4.23034211275320   12.99800733630063
C         1.74106865810595    2.33542841667011   12.10514667181186
H         2.04504735495701    1.74593716171717   12.95602029637790
C         1.27765371208975    1.70695239506754   10.94043971203328
N         1.19145103908691    0.35822666180683   10.81399354741653
H         1.41886589252717   -0.26192131518258   11.59069447209709
N         0.69032267397674   -0.14855269505688    9.66797774270591
C         0.46693266810923   -1.41056654262193    9.58177544978350
H         0.66269790039313   -2.04960063312339   10.45268119386251
C        -0.00796112090713   -2.04338905382086    8.39839984715100
C        -0.35480610708967   -3.40439190929507    8.40984645818376
H        -0.28549538901559   -3.94914641260086    9.34152036749921
C        -0.78700969004082   -4.03668939035831    7.27147508635728
H        -1.06164954330052   -5.07980661946831    7.29603632564632
C        -0.86805579000094   -3.32018025244808    6.07457510657955
H        -1.20842279218420   -3.81889272905600    5.17875312808573
C        -0.51743998274735   -1.99499548936870    6.02258752791440
H        -0.57311684372524   -1.43551015234631    5.09988840898848
C        -0.08261932847609   -1.30381893657910    7.17822923749478
O         0.27910394131987   -0.07549425694184    7.09897398355989
O         2.36912269569295    1.30784781726188    8.11925070236663
C         2.66301954759778    2.08618602779616    7.14821482248071
O         0.42181271531070    2.51987650431120    7.14728080904799
C         1.55190296992535    2.80443298308579    6.58245259316886
C         1.75030708153089    3.74600599797758    5.56267434719028
H         0.89739537010163    4.26910336239904    5.15304737735845
C         3.02493225436723    3.95585113610675    5.08488550633685
H         3.19157047080281    4.66470678309566    4.28778220643423
C         4.10954750631263    3.25499603733037    5.62015502345566
H         5.09848900365789    3.43857356236760    5.22389537114109
C         3.95088359642527    2.34144301461929    6.63653621095212
H         4.79563873536325    1.80226223981243    7.04052799733170

