64
CSD_code = WIKJEH | q = 0 | S = 0 | Stoichiometry = C26H30N3O4V | MND = 6
V        12.72047107660465    6.49575146015593    2.39750874406528
O        13.14378412401815    7.82823684849397    3.01338354029432
O        13.24096555414317    5.20909554946642    3.60136339026877
C        14.39785376860462    4.83660539004114    4.00805870742675
C        14.53551344145248    4.21254427417836    5.27232077296836
H        13.64398506944051    4.11013841981534    5.87427757132103
C        15.75209952902630    3.76681974764222    5.72046909358133
H        15.82740621291506    3.30451972387479    6.69413529568426
C        16.89882272508397    3.89911638645668    4.93232237396504
H        17.84914104125963    3.54043777689328    5.29641567054784
C        16.80374064898891    4.48510003908316    3.69584378945616
H        17.68342061731413    4.59049964422607    3.07522919766742
C        15.57724853204230    4.96993151376433    3.21208136014616
C        15.49703233555098    5.54644573252425    1.91404795578434
H        16.39301972635168    5.49079153383981    1.28154249108418
N        14.43719765766435    6.10301056945616    1.44884922552105
N        14.44381697054506    6.57605548626363    0.18488224403120
H        15.27172077469943    6.46013295091895   -0.39874454719191
C        13.36433450748371    7.26803710838373   -0.25616606035493
C        13.29529158524670    7.83159673332433   -1.53900687497480
H        14.12456831582223    7.72957693615383   -2.22165994376658
C        12.14900286782305    8.50817807595121   -1.89107634802321
H        12.05682663346504    8.94912970542003   -2.87194665693195
C        11.11336241976487    8.61821306651934   -0.96539581691737
H        10.20489952572572    9.14215154161390   -1.21224061447348
C        11.27063033761188    8.04196509732800    0.28096438290872
H        10.49883010936206    8.10615585989246    1.03845800677531
N        12.36695890213721    7.37837934333457    0.62423498186548
O        11.11558881117843    6.45029458029799    2.90168836706292
C        10.27371363639716    5.52832010771579    2.57252760352085
C         8.96234635113773    5.37286043344565    3.07673977664505
C         8.21182040298958    4.34035531657021    2.55885427458261
H         7.21350274446548    4.18712110712068    2.93080244384303
C         8.68947435604345    3.46158256171273    1.56642075848555
C         9.96662488052207    3.61779064966348    1.07413357925202
H        10.37917491240057    2.96253840552631    0.32435802699857
C        10.79489392365005    4.64500625870579    1.56694810755496
O        11.97823087103405    4.91488700909498    1.16609172724920
C         8.49357250316007    6.30904844846295    4.17862827740319
C         7.06356032894643    6.00880306003539    4.63599600517239
H         6.35815147097044    6.12629713054330    3.81617027312159
H         6.78275069937905    6.70330614841785    5.42520364379012
H         6.98411130382806    4.99952729844407    5.03301342699583
C         8.55103550664235    7.75644205452195    3.66655414985313
H         9.57991304861278    8.04566423359867    3.45573444960481
H         8.15422502904655    8.43374215821123    4.42031810011625
H         7.95550928564452    7.86106806688490    2.76032819499242
C         9.43879065365968    6.15498299551840    5.37989060648651
H         9.41556732705067    5.13002062720495    5.74643820828637
H         9.13084207163977    6.81915566332999    6.18529825213536
H        10.46347214382440    6.40195956746489    5.09927565151402
C         7.75712142968759    2.36060811353929    1.07868373861897
C         7.36485382449521    1.46828539050654    2.26510197488360
H         6.82780446119603    2.02843726248344    3.02493547051508
H         8.25517352921595    1.04179044519207    2.72191310456802
H         6.72562164361334    0.65505765975178    1.92672903257089
C         6.50049205975160    2.99951193626219    0.46991085516929
H         6.77467533841338    3.64473466983732   -0.36213962186499
H         5.96398122217395    3.59707995886736    1.20119774626563
H         5.82832170055493    2.22682346336017    0.10184401849890
C         8.39954625824265    1.47022707393852    0.01152613044151
H         7.69023381461736    0.70482376192360   -0.29832891137953
H         9.28390670785655    0.97220223562181    0.40107414656640
H         8.67485073781195    2.04962763120734   -0.86641352224161

