58
CSD_code = WIKJEG | q = 0 | S = 0 | Stoichiometry = C31H22IrN3O | MND = 6
C         8.41831303882316    3.87021034891793    2.85387327801081
C         8.95442673016440    5.14633942472983    2.71182361920412
H         9.67961780739511    5.32738641325641    1.92990573604978
C         8.58733683835196    6.18814489386327    3.54548152523358
H         9.02050082974088    7.17013951853886    3.41124346697906
C         7.66050757389390    5.97825186119891    4.55807386800466
H         7.37404963266770    6.79280013048680    5.20840588384209
C         7.10345290038853    4.72942457944121    4.73104538458240
H         6.38160481633588    4.58048359139612    5.52174000872966
C         7.47516780325860    3.67810510508734    3.88717224223685
C         6.94212921070284    2.33043615822586    4.00031372037113
C         6.00560958586140    1.92963693098028    4.95850479602447
H         5.63597859299909    2.64638897552127    5.67331113773609
C         5.55572485230685    0.62756793319516    4.99208137568260
H         4.83239985510205    0.31400778197080    5.72967599210287
C         6.05076335436409   -0.27172721829089    4.05532372307966
H         5.72909054056412   -1.30024638406565    4.03987772784382
C         6.97155100111182    0.17976569402733    3.13227148162248
H         7.37331887183881   -0.48944334524583    2.38398413467274
C         9.11094576929622    0.34799937823075    0.78867590521919
C         8.46034504361498   -0.24030828561089   -0.29251253722475
H         7.62333937939400    0.26874334541867   -0.75543501078473
C         8.85067623512298   -1.46683536883600   -0.80249703906350
H         8.32470683582392   -1.89581285492140   -1.64491640489754
C         9.91598417303009   -2.15065877930221   -0.23482245960209
H        10.21873116279870   -3.10942453057951   -0.63148915432508
C        10.59064437235852   -1.60065030434177    0.83472041554755
H        11.41947247188365   -2.14270140825782    1.26758286451979
C        10.19738443499541   -0.36062254913828    1.34407863980204
C        10.85834067446064    0.29287397585382    2.46392471817038
C        12.00280696321834   -0.20012233901181    3.09776925280122
H        12.45112654146413   -1.11709912460069    2.75195608788225
C        12.56552971191839    0.48778602607678    4.15101216897732
H        13.45256063500637    0.11457849140475    4.64090783794869
C        11.97122475635803    1.67286270339197    4.56430141706342
H        12.37490216642979    2.24809282691056    5.38169802298895
C        10.84548591369419    2.11177846663559    3.89643448481492
H        10.36267879178702    3.03471141176153    4.18632516131422
C         9.46150269806731    3.54354252271137   -0.58264999611527
C        10.10875214537903    4.19435745758765   -1.63797599694116
H        11.18559974194398    4.25739415642030   -1.62371990894826
C         9.38042322111214    4.74491237296231   -2.68244865866059
H         9.91379143477104    5.24139348982418   -3.48112683478410
C         8.00442331868802    4.67835937197055   -2.73234625169459
H         7.45772951898071    5.11267124203185   -3.55521539991602
C         7.29974809964796    4.03829074927944   -1.70430243389128
C         5.89404308909383    3.90720623204824   -1.66172665139345
H         5.29733662443120    4.31982272408557   -2.46191583866987
C         5.31467329009807    3.25480307540329   -0.60686268211141
H         4.24400917462812    3.13377529194860   -0.54416070833547
C         6.11514657318594    2.73004049342503    0.41357282902516
H         5.65697731177101    2.21489613659127    1.24689263402754
C         8.03139159571621    3.47292497558112   -0.62761865714340
Ir        8.76078981042098    2.15190263686908    1.74550445278270
N         7.41284674589077    1.43755872918312    3.09317955539944
N        10.29476328054130    1.45122524748570    2.88022441671140
N         7.43334870041712    2.83311948891939    0.41170798386867
O        10.08187375669169    3.01204013135335    0.41686467362751

