75
CSD_code = WIKQIT | q = 0 | S = 0 | Stoichiometry = C38H28CdI2N6 | MND = 6
I         0.16052974819090    3.00232568872580    6.23084471864487
I        -1.05840419528147    1.64068315046492    1.70135130992115
Cd        0.50948654583733    1.62757746359240    3.91702120414772
N         1.39264446631001   -0.81450425451556    3.18779745655869
N         1.92816765792597    3.53596987744348    3.06067664640049
N         3.56162769606805    0.44186079476233    5.04833081555851
N         3.14783907929602    1.51928192048892    4.46135150956378
C         4.74118817156683   -4.17757394108332    5.41792289186108
H         5.09199768803142   -5.07774972701347    4.93605969418610
C         4.83277107016126   -0.58139380613299    2.12761764444742
C         0.74176221094656   -1.81742653569953    3.65587118516887
N         2.50003317381391   -0.83844194347291    2.51751187829402
C         4.65325917866963   -0.29475633407612    0.77287468118415
H         3.64917805334141   -0.22237821860445    0.38360214922301
C         3.68315994252713   -0.76332304390044    2.99755763138270
C        -1.98883453242592   -0.09904812134782    5.29203048249606
H        -2.12199308762601    0.89146137366619    5.71203981166521
N        -0.80151361362751   -0.35828520568366    4.76743403473989
C         6.08680469157400    1.90734244351670    4.97461089340420
H         5.59065147295973    1.59646498632480    5.88260581897976
C         3.86500602362881    2.47602834148709    3.99338121802844
C         1.26384256032996   -3.19607128046370    3.63349884642634
C         6.12678528012011   -0.66321363175339    2.64409757176781
H         6.27639344564993   -0.88141092136968    3.69170341658533
C         3.82785420926790   -0.67626234335262    4.48733213981034
C         4.52524628760368   -3.04006844046987    4.66494896913479
H         4.70525017438654   -3.05560547631722    3.59967787839739
C        -2.80190964946309   -2.27576992789343    4.77191160403745
H        -3.58387780351763   -3.02033086970868    4.76051171851063
C         5.33616318747850    2.41384516172548    3.91700832571234
C         5.74723429184043   -0.09385054623963   -0.04378327910794
H         5.60163309687702    0.13319482193425   -1.08940017745624
C         4.50565986806022   -4.16584191628820    6.78296458707412
H         4.67071502810968   -5.05883197371017    7.36700608829842
C         3.84536769225021   -1.86360782341550    6.65546344055226
H         3.48888102453725   -0.95724959634449    7.12062520671750
C         7.03039800980490   -0.18097318614698    0.47500384371547
H         7.88449931254583   -0.02392934172489   -0.16658957483474
C         5.98401562245353    2.82303121350818    2.75242693652177
H         5.40348951708091    3.19531389123203    1.92067772099537
C         1.83216220605569    5.87722826236492    2.62488088914367
H         1.26067627435964    6.71723003680975    2.26457117398242
C         3.81112120481482    4.92121922992913    3.54776341116213
H         4.81213347065270    5.00546701603252    3.94167069115257
C         4.07747736526771   -1.86924308466838    5.27862705127656
C         1.90665043340535   -3.70069040468993    2.50634824523448
H         1.98588130439066   -3.09156691676055    1.61755412012532
C         4.05654604089809   -3.00709028333824    7.39841001585087
H         3.86973891458235   -2.99796015903519    8.46193229299745
C        -3.02139244736549   -1.02384462109725    5.32419607024559
H        -3.97112133097917   -0.76302049878367    5.76236220522936
C         7.35861432752443    2.73024658144400    2.65408825298808
H         7.85199171370990    3.04332788049663    1.74622107361652
C         7.46358915876994    1.82980347693214    4.87445279049644
H         8.03901803437167    1.44783110731968    5.70461961728363
C         3.17710144681208    3.67873614048495    3.51036835201835
C         1.15596353727682   -3.99170326998611    4.77324293498466
H         0.67808315450870   -3.59581876686695    5.65775982811853
C         3.12378872874591    6.03538213145226    3.10164280818194
H         3.58717148948651    7.01026403800222    3.13113706709032
C         2.30424824927666   -5.77198530132676    3.64913905259624
H         2.70512437820437   -6.77453104286813    3.65404311505359
C         8.10139339016544    2.23861858960621    3.71542422944570
H         9.17645063936162    2.17419106420155    3.63834142320383
C         1.67834395606522   -5.27024679555514    4.77892676853541
H         1.59601463815851   -5.87745432972825    5.66784081066337
C        -0.57897471701394   -1.56608336752314    4.24385863040800
C         1.27850423461012    4.60607119607672    2.63060183284720
H         0.27025846129032    4.44171903876981    2.26768231430864
C         7.21589178717037   -0.46814430283747    1.81741589292357
H         8.21359323312099   -0.53768863937545    2.22402553720407
C        -1.56216901258273   -2.55611874137589    4.22669819846259
H        -1.35741913116174   -3.51317591036226    3.77243265029982
C         2.41536429433750   -4.98631979135618    2.51442830337593
H         2.90087797491924   -5.37433228425118    1.63131341198804

