75
CSD_code = WIKQEP | q = 0 | S = 0 | Stoichiometry = C38H28CdCl2N6 | MND = 6
C         3.34024326226112    5.56826736559434   11.56237414994867
C         4.40546856179987    6.46712550071309   11.60065253322534
H         4.29747285606303    7.41440554875800   12.10658647665628
C         5.60246453472602    6.10444536170412   11.00841285468968
H         6.44943382810671    6.77412585410867   11.03708613378739
C         5.69610150477972    4.86848319003998   10.38805863612269
H         6.61138234503902    4.54957732074186    9.91564883291895
C         4.58550139766752    4.03671126497588   10.39645113472444
H         4.60359878941380    3.05873509419344    9.92812008717990
C         2.05180481725199    5.88967562625792   12.19238362722166
C         1.59081433877944    7.28888045407379   12.22444601997135
C         0.93694767344344    7.80286262369781   13.34165623500421
H         0.80964029478822    7.18314952139489   14.21724967713227
C         0.47820104680266    9.10700017878301   13.34030629232988
H        -0.01583499828075    9.50111704483924   14.21601432755483
C         0.64830530977540    9.90389554275354   12.22068196422276
H         0.28469290618044   10.92058453640446   12.21998471655798
C         1.28531280545590    9.39444564165879   11.10063735058151
H         1.41290658229750   10.01061672863625   10.22325455687584
C         1.75979911700013    8.09726926698393   11.10082894520380
H         2.24563394537915    7.69548300484742   10.22370796660057
C        -0.91594365544303    4.87515495663713   12.83155332395882
C        -2.07654782111638    4.66378693010034   13.67953470388640
C        -1.91646854486339    4.34262088900885   15.02907731428631
H        -0.91753092505307    4.27470096926642   15.43177385791450
C        -3.02105365693135    4.10112397882573   15.82011457372841
H        -2.89043585917084    3.84843007847054   16.86190341796562
C        -4.29652727800797    4.17871120832524   15.28105454795436
H        -5.15875408329117    3.98789289313987   15.90234149246261
C        -4.46329854302445    4.49993824860790   13.94394404423006
H        -5.45485705232361    4.56172531630205   13.52119664544552
C        -3.36336880053775    4.73858257757539   13.14354044369323
H        -3.49778794272760    4.98477918452231   12.10022666773335
C        -1.28037492607436    6.04632715498129   10.58271188922294
C        -1.70674066224480    7.20675835565559   11.23101931512845
H        -1.89613048080325    7.18996397552075   12.29451869910240
C        -1.88799311922167    8.37428096402044   10.51580559831191
H        -2.21993163360363    9.26650989177375   11.02519187733499
C        -1.64159752718066    8.40297644353763    9.15302590866708
H        -1.77919538122335    9.31910079120851    8.59838415768844
C        -1.21646486270169    7.25431220704007    8.50248116582675
H        -1.02156379680808    7.27681938401108    7.44050065361601
C        -1.03746026869766    6.08204374880691    9.20808164675825
H        -0.69599433347865    5.18344129960288    8.71758715323821
C        -1.04940396951347    4.82689765924288   11.33820019655457
C        -1.03691089522850    1.65653389943453   11.77809739331748
C        -2.50749363017978    1.65238591260540   11.87111251031488
C        -3.12428307826868    1.16412691405069   13.02253225262189
H        -2.51799720468238    0.77524848057655   13.82748832106701
C        -4.49968761015361    1.20223598540714   13.14327037947779
H        -4.96833354871696    0.82948548043539   14.04169254933019
C        -5.27556710683492    1.71593523576892   12.11668074783764
H        -6.35095422527474    1.73772354937885   12.21108711732430
C        -4.66968648807362    2.20132474532033   10.97002094568164
H        -5.27129312911791    2.60041372985369   10.16688154339830
C        -3.29269634488044    2.18022651976844   10.84896187463847
H        -2.82043355774538    2.55336486037641    9.95193663291765
C        -0.27955818596285    0.49921810070901   12.27575956881109
C        -0.80077812693781   -0.79158529370094   12.19705164626735
H        -1.77149299506401   -0.95822745025264   11.75552431154772
C        -0.03638830328566   -1.84627427374446   12.66438205169285
H        -0.40784062512885   -2.85854564437368   12.60101580911925
C         1.21212089275052   -1.58149553213762   13.20511287085900
H         1.83732844544641   -2.37596583462134   13.57998962259658
C         1.65209620315247   -0.26614595989735   13.24449992625835
H         2.62084152315209   -0.00218636739939   13.65435945532407
N         3.44086137785540    4.37889254175748   10.96590688364091
N         1.36810871483898    4.91318856846768   12.66379305419499
N         0.26299635274227    4.94134194909579   13.32767937907304
N        -0.79001872327607    3.72107821614235   10.74633056961841
N        -0.36395966408447    2.64177035769120   11.30957313559142
N         0.92536617605201    0.74408893259896   12.79402587817886
Cl        2.65155770880981    1.11454929424325   10.04415411334333
Cl        3.84217786657758    2.47097929669797   13.59292530550152
Cd        2.21065238701032    2.54227800821625   11.87994233736567

