24
CSD_code = WIKTOB | q = 0 | S = 0 | Stoichiometry = C8H6CrN4O5 | MND = 6
Cr        5.82090392603754    0.28934296378855   12.54858830876837
O         7.99564718682130   -1.11295718588564   14.06501703025170
O         7.05224751631209    2.79278069031361   13.68243841724905
O         5.12005897681759   -2.55064550147828   11.84409888175711
O         4.28099754688374    0.04289092483629   15.12475685555733
O         7.90510278943031    0.21940983110574   10.37947411305367
N         3.83290940122612    1.09443573367642   10.22447052201731
N         2.86266916053101    1.95798834611234    9.97168671106807
N         2.76077151832928    2.63184902059854   11.06684451411839
N         3.60031618444046    2.25778441432392   12.00042670074285
C         4.32225357594645    1.25792003155323   11.50000432725549
C         4.25563506379960    0.15701302739668    9.23151250589539
C         1.80324603797881    3.67870141506038   11.24397893648215
C         7.15847553668033   -0.56298861281179   13.49438519979995
C         6.51792057267761    1.90109749057689   13.19359987457740
C         5.29272802217105   -1.42811823059439   12.04966003442051
C         4.77889465525848    0.17817515840700   14.09841121400227
C         7.03767413877668    0.30606495890982   11.13560922103115
H         5.29364949216402    0.34982873441866    8.95394849649105
H         4.18547725835375   -0.85726860907654    9.62796880393745
H         3.61263885069500    0.26430614262364    8.35996515878517
H         0.89960531425152    3.28209877015255   11.71001360262156
H         1.55442692484922    4.09991714968168   10.27234791400696
H         2.23375034956591    4.43537333630908   11.89699265610606

