69
CSD_code = WIKTOA | q = 0 | S = 0 | Stoichiometry = C26H39OP2Rh | MND = 4
Rh        2.34114401160622    4.60886345551327    2.71763675483690
P         4.17725169807888    3.26869058846454    2.71073553063575
P         0.83986671384828    6.04320626580098    3.64399570810525
O         0.39936025876022    3.18857617162033    0.94643704792569
C         1.12682102574550    3.61621443493050    1.73847162873080
C         3.72932828481566    5.91643559660957    3.59149419586031
H         4.76766776128055    5.82619770019550    3.25698362621684
H         3.47404978337411    6.97764497283818    3.54449090043463
C         3.53485577475925    5.35326300629562    4.92691201482529
C         2.53733497981208    5.83580262713766    5.77858596677787
C         2.41567227581933    5.32981722282473    7.09431358792949
C         1.51836008370770    5.84702740603162    8.05753234605442
H         0.88764569078922    6.68825611898766    7.80858764899873
C         1.44585543157289    5.32951963891514    9.32084663068001
H         0.75530844413785    5.75144194463696   10.03761178439908
C         2.26510241294889    4.25911144505832    9.70218595451026
H         2.19495747930522    3.86027136885219   10.70356832286035
C         3.15161538596079    3.73616767568957    8.80250568659540
H         3.79706359419931    2.91508530486815    9.08356464823906
C         3.25361576485504    4.24983969856212    7.49673144479871
C         4.14319697805165    3.68102034761966    6.56138171151201
H         4.70862061970442    2.80667561331706    6.85910202509186
C         4.29298582512082    4.20648595560068    5.31046167555219
C         5.16521807423202    3.55407627248449    4.27754908575400
H         5.56502873369325    2.60908807386939    4.65386972424574
H         6.00879554852619    4.20304498859485    4.02085270612205
C         1.56255734709569    6.81500928965385    5.18786741353491
H         2.05740003825443    7.74573946429105    4.89559866507913
H         0.75168104306669    7.06755915999408    5.86830171997483
C         3.94066259424596    1.42211814419269    2.81998807019221
H         4.90565146692002    0.95466309578105    3.05146887043829
C         5.47575061413024    3.55981351561617    1.40109432323784
H         5.92541755764528    4.52017258712204    1.69153105272237
C         4.78020127052031    3.77358573207725    0.05953518024320
H         5.47270059929887    4.18118446031034   -0.67542731838398
H         3.95193282941237    4.47801473435385    0.18993022807215
H         4.37528965986212    2.84330578955365   -0.33050592628645
C         6.58339923670870    2.51578528536927    1.33877748401731
H         6.20990817964402    1.56181794644054    0.97584549950640
H         7.02967704898814    2.36337531169472    2.32009272781100
H         7.36668768023690    2.84893319176837    0.65871896643651
C         2.96307804456805    1.18226300904961    3.96780029685047
H         2.00720093832749    1.65384810523852    3.73198893532872
H         3.32789781644301    1.60816625105844    4.90052303925062
H         2.79483529232770    0.11655890662488    4.11558512927436
C         3.37859208679627    0.83742409683918    1.52995734736030
H         3.06549804739975   -0.19332568322837    1.69170000317780
H         4.11328949780338    0.84232137319329    0.72869771672360
H         2.51056285935998    1.40991134910578    1.20746740848097
C        -0.65819862061811    5.15139794491090    4.31224526382054
H        -1.13781071385914    4.73181957360957    3.41791753293019
C         0.12454047827023    7.49765033752385    2.72351399081569
H        -0.38140318511610    8.16970483112046    3.42712532634977
C        -1.67939343762109    5.99385187468120    5.06897621961840
H        -2.54814155150089    5.38061666314662    5.30526150751663
H        -2.01754450302694    6.84559730801040    4.48326551771644
H        -1.27173605282951    6.35719423435248    6.00932733472555
C        -0.16034814147751    3.98956924791103    5.17085255095471
H         0.17205350833675    4.34031854535314    6.14498111403010
H         0.68795936427147    3.49956539777629    4.67997156165152
H        -0.94935064679798    3.25478640690514    5.32196469266857
C         1.27763916900699    8.23284499150544    2.04488629062719
H         1.86581069573353    7.52315844096077    1.45727181325796
H         1.93344108313506    8.70794418430174    2.77192016131900
H         0.90084931599376    9.00628878755148    1.37710979806328
C        -0.85458069354650    6.99415977896651    1.66715074094753
H        -1.15303669452666    7.80803111046773    1.00752356331369
H        -1.75255563778217    6.57515228995360    2.11435755299653
H        -0.37668811976998    6.22257903960121    1.06253227594364

