35
CSD_code = WIKVAP | q = 0 | S = 0 | Stoichiometry = C11H18ClIrN4 | MND = 6
Ir        3.68456147198894    7.36320535438258    4.15334250192074
Cl        4.92545299233206    9.12499707688347    5.09246523595026
N         5.67213656262570    6.10018170865621    6.05189714201669
N         6.84233801889793    5.50145776394620    6.06239397258783
N         7.09725904558320    5.28883447017116    4.81610060241086
N         6.15927027344273    5.70337477217329    4.00008222049625
C         5.21286908468128    6.25122392114080    4.76293835688555
C         8.30244655527271    4.65954793224012    4.37447785682382
C         5.05526445712919    6.56070908102593    7.25585051505363
C         2.56483636389583    8.74707358667846    2.93803424501622
C         1.85778738196758    8.54758436475406    4.10272046101251
C         0.61159828338592    7.69510684479048    4.18131753604668
C         0.91666665142611    6.22807130708660    4.54226717756325
C         2.29706520590855    5.77696811906687    4.11327546605005
C         2.81715860374242    5.96015958352511    2.81586669359658
C         2.01612177986104    6.59187057729007    1.69603282188260
C         2.23914989906112    8.11374436646054    1.60686829336948
H         8.93088274464922    4.47535646019207    5.24279927713325
H         8.81260507322447    5.31448978446464    3.66808584689260
H         8.06550515936912    3.72076876146532    3.87243603504704
H         4.09880336689931    6.05752214213699    7.39947673210131
H         4.88046505739861    7.63533274661025    7.16043042590223
H         5.72299120440354    6.35298327496524    8.08861630809736
H         3.17254388695326    9.64621048244507    2.85976003167315
H         1.96165414922174    9.28580545541091    4.89303717383273
H         0.08738980319495    7.74708280713753    3.22570748463022
H        -0.05682733284288    8.11137756727667    4.93767652741737
H         0.84897770980519    6.10898469578021    5.62607231897702
H         0.16160904353095    5.56886542788658    4.09949261429028
H         2.62983234391745    4.89056339937157    4.65565551179311
H         3.55717862008998    5.23817879026061    2.47983036742855
H         2.31024509227483    6.14007429576469    0.74688778951675
H         0.95767684197403    6.37032839601171    1.84276428524985
H         3.07339203810489    8.30838710267911    0.92999325033351
H         1.35479256662954    8.59957757986880    1.17934692100088

