123
CSD_code = WIKWUL | q = 0 | S = 0 | Stoichiometry = C56H60Cl2N2O2Pd | MND = 4
Pd        3.47061962062192    7.12543448167235   25.23173739207908
Cl        5.22760131103234    5.71626729976532   25.09988199821747
Cl        2.06459520467318    5.36139823341224   25.38101303794034
O         1.60890447560539   10.74294706361182   22.54363900026008
H         1.59270219234951   11.39467687996854   21.82663942922256
O         0.71126558394282   10.72165721524543   28.17996979723574
H         0.05185025736893   10.43877098018219   27.53668745291157
N         1.84508053395436    8.55317289082637   25.29935261284653
N         4.57745419004804    8.75677551924911   24.88312706732838
C         1.11741591596460    8.41237357030626   24.02547629128515
H         0.60009510578502    7.44789039442744   24.05374969668624
H         0.37479536953782    9.21905384687835   23.93167307002347
C         2.03520959255839    8.43470053508308   22.82871175219736
C         2.23894485605504    9.60787129326465   22.10005008943299
C         3.05142435333312    9.59383231124288   20.95621209926205
C         3.65882448971370    8.40169798078319   20.60214438058016
H         4.30741677588846    8.37147672714913   19.74238336435645
C         3.45442029116620    7.21553361538165   21.29999035293758
C         2.63350185711177    7.24415788461496   22.41534365803962
H         2.37657588506799    6.32252571293284   22.93037061780815
C         3.25319292746053   10.86821728398467   20.13922093353393
C         3.90950929216782   10.60343347518295   18.77489801973143
H         3.35053940911432    9.86305880061773   18.20856961489373
H         4.93653159826686   10.26671627699968   18.89310826692834
H         3.91993063533733   11.52920657854788   18.20190501147109
C         4.18517287561834   11.79664034980641   20.93197495093158
H         5.08556481772759   11.24509144446181   21.19705832823168
H         3.72340819194669   12.14747475920826   21.85180503275589
H         4.47921890313516   12.65592956306412   20.33356911443466
C         1.89662534644500   11.48659082233988   19.82611032642848
C         1.64874383117590   12.85401427501093   19.89623686979274
H         2.41976022433069   13.53436129648675   20.22366760997960
C         0.41072426591704   13.36620664983247   19.54413881104345
H         0.23878538963129   14.43079943135349   19.60463576479052
C        -0.59839675220478   12.52392555067647   19.11416470808338
H        -1.56179498392161   12.92608895739273   18.83969507646106
C        -0.36182240871273   11.16140429360862   19.03363363868892
H        -1.14114733656462   10.49535213643771   18.69467455949174
C         0.87313257511488   10.64953510995015   19.38231117103838
H         1.05064959558803    9.58556553869624   19.31856950151097
C         4.08953800872618    5.94383279677859   20.76162007644059
C         3.34933752903660    5.57452603192789   19.46796753934210
H         3.46590426453549    6.34345866767558   18.70753952716918
H         2.28737415432659    5.46603389955935   19.68074762266457
H         3.71441991095427    4.62824489468365   19.07630713443036
C         3.97724483903537    4.76300949164430   21.73412293138142
H         4.57281097465758    3.93178963533206   21.36196990928670
H         2.94633640769586    4.42742924798944   21.82219666926403
H         4.34970978359008    5.02450120424653   22.72234276823022
C         5.56612446068794    6.23106003744495   20.54832856971784
C         6.23781344922697    6.00292827564380   19.35621783404043
H         5.71985485767955    5.59856844179399   18.50043057413923
C         7.58971924651208    6.28688004500710   19.24401504102304
H         8.09715592022955    6.10244875728877   18.30760788757236
C         8.28991248801572    6.79954999804058   20.32030038049683
H         9.34438982508573    7.01677660415251   20.22933033466911
C         7.62919358444506    7.02543315160570   21.51683201589293
H         8.16925515180828    7.41277189052038   22.36884952467537
C         6.28152119294216    6.74576427781828   21.62570792899952
H         5.76784084384616    6.91397900094564   22.56084501169561
C         0.89557352578456    8.35409676327221   26.41698620252220
H         0.04717817507732    9.04834398867824   26.29869873081967
H         0.51480347138379    7.33145924166359   26.33222880876948
C         1.60334481152187    8.51401282430357   27.73836842642381
C         1.53353975538832    9.67565237286478   28.50903120224869
C         2.35114619005479    9.81717725211301   29.64156022955248
C         3.23613933355281    8.80063654186165   29.94780835762036
H         3.91160308219851    8.92466634252257   30.77720633304853
C         3.29107915107285    7.61417490859794   29.22071820064507
C         2.45610428609010    7.48146399682298   28.12649949951918
H         2.41904408748504    6.55224626912817   27.57042521282980
C         2.27335369701830   11.10805223113367   30.44262444002867
C         2.90658366742892   12.21700999758369   29.58940497974240
H         3.89181112667764   11.89390010948526   29.25550744693060
H         3.02750720107126   13.12942274267270   30.16796852700312
H         2.29329095295365   12.42648415367641   28.71778500112526
C         3.03703525501706   11.02999704743919   31.77261549161013
H         4.10869558109694   10.94833067656951   31.60479133334913
H         2.69890220512951   10.18534925979698   32.36785066982164
H         2.85119037485897   11.93923077557892   32.34149863611978
C         0.82018865803476   11.37681547002866   30.79890189013422
C         0.24941222531108   12.64042396163560   30.74764121184770
H         0.82247628700143   13.48533758149363   30.40029170243369
C        -1.06512957414723   12.83882279814632   31.13486152689326
H        -1.49213082691999   13.83054058164975   31.08513354612350
C        -1.83111649923160   11.77872579666130   31.58428292398642
H        -2.85670070495450   11.93556883801925   31.88511077838145
C        -1.26999813961614   10.51459960474326   31.64659644240216
H        -1.85671034016668    9.67788948802105   31.99794188092066
C         0.04286736650407   10.31906190011188   31.26161871907949
H         0.47089180169979    9.32741575419494   31.31175053851568
C         4.32705520962966    6.56634251274143   29.59431900073722
C         4.25908537416462    5.31307898188706   28.71278432412480
H         4.40388697986737    5.55208264650749   27.65909930722338
H         3.30469301368786    4.80534531316064   28.83367682800247
H         5.05144540003117    4.62646065749486   29.00393532532406
C         4.10092519173304    6.13227837365769   31.04795763905249
H         3.08218972562763    5.76426819322571   31.15384959026468
H         4.23865959775428    6.95393141438498   31.74584681661127
H         4.78015684701932    5.32664956505329   31.31602315403244
C         5.67693465499366    7.22676529170342   29.35393590282177
C         6.69555052720357    7.25622841272294   30.29486585914701
H         6.56395726628422    6.79254780572150   31.25990652569270
C         7.90218515769428    7.87569534768444   30.01130836173177
H         8.68479810418976    7.88572372264701   30.75655847981011
C         8.10780546958706    8.47832304587041   28.78454775191271
H         9.04823953327786    8.96320459291430   28.56629405620820
C         7.09899243609636    8.45085506215992   27.83538427942817
H         7.25078540509521    8.91607182283509   26.87116129325100
C         5.89834893381949    7.83016371621710   28.11791569302139
H         5.11410223177742    7.80603999126793   27.36086928247422
C         2.47965379145596    9.87422186841974   25.37995078347267
H         2.56922015118367   10.15983756925311   26.43525306735212
H         1.86839319785111   10.63197675509246   24.87253998046188
C         3.87650019337339    9.89326138204843   24.83527281937189
C         4.44700814985240   11.08051396615522   24.39635364221760
H         3.85360588780767   11.98159701417732   24.39086953478980
C         5.76712744711915   11.08991741241623   23.98176554360728
H         6.22724456336805   12.00208357790119   23.63342168664922
C         6.48439138724854    9.90525948504177   24.03931705525086
H         7.51840166884990    9.86308714618587   23.73783708363253
C         5.85312459300053    8.76578289046190   24.50195434686566
H         6.37747257359144    7.82248181251147   24.59583634242669

