125
CSD_code = WIKXOG | q = 0 | S = 0 | Stoichiometry = C54H64Cl2N2O2Pd | MND = 4
Pd        0.08859621249943    3.56100306637949    7.56218281980126
Cl        1.95627714074335    4.81215975458020    7.50220885477577
Cl       -1.18826557025772    5.43700786878055    7.58217511891081
O        -2.03625132486332    0.06176449827224    4.87819585936816
H        -1.78396414662411   -0.71793346245110    4.36415218952667
O        -2.84932079783592    0.36500544746514   10.64550563126774
H        -3.29243811832932    0.53323434979531    9.80578081214721
N        -1.61106492957671    2.25098187551881    7.65577454213053
N         1.21679003156993    1.78112582101355    7.55392513109988
C        -1.08853862051352    0.88673405555306    7.83613464209145
H        -1.00503485092027    0.67366773994004    8.90353991559554
H        -1.77382097719914    0.14991822726874    7.39502307102630
C         0.29144314673715    0.69826425950061    7.21164637367034
H         0.69500749768376   -0.27332526391075    7.53873856499269
H         0.20054420026350    0.67024786886071    6.12614682165260
C         1.72259253501248    1.64044365752324    8.91770063774976
H         2.25188333352931    0.68456301700756    9.04222303280211
H         0.90200832224040    1.68792569141281    9.63707682336259
H         2.42001291691681    2.45696128985562    9.11530407522043
C         2.34228304148705    1.75329476273126    6.62283256762876
H         2.87022870222099    0.79207687031652    6.67976639564519
H         3.03367749761374    2.55823438711436    6.86933003277660
H         1.98264877204037    1.90717700122312    5.60432047435625
C        -2.35598486589707    2.38550646162050    6.38895493888637
H        -3.12049509586020    1.59854055422608    6.32231856259549
H        -2.84780605906695    3.36285736205739    6.40922075227701
C        -1.46963014684299    2.33198634330509    5.16906712412104
C        -1.33632671944425    1.15288204059198    4.43067397106257
C        -0.51266598069325    1.12244750086060    3.29532387116502
C         0.14598447033852    2.28724822616049    2.93440498516786
H         0.78995180947841    2.28495101920862    2.07049242601211
C        -0.00211047190142    3.48199710322260    3.63156046066461
C        -0.81671814009542    3.49024474744511    4.75345594143689
H        -1.02680705082899    4.42063383188238    5.26874984653812
C        -0.40435900590236   -0.15463140029585    2.46253963040592
C        -0.04683143773871   -1.31597403493099    3.38015552519394
C        -0.72199040496284   -2.53258033532924    3.38396173254889
H        -1.55765454605488   -2.69822769432836    2.72130079492432
C        -0.33255254292195   -3.55400065745335    4.23531198460234
H        -0.86995843622180   -4.49059075489371    4.22263662359071
C         0.73669253792453   -3.38005197059660    5.09468849046237
H         1.03628063214019   -4.17706020610297    5.75819869826860
C         1.42562307700795   -2.17862631606791    5.08963378851154
H         2.27253425337596   -2.03797081194535    5.74547369846282
C         1.03922748712928   -1.16041475688809    4.23965299167108
H         1.58771749475063   -0.22921753292792    4.23340290088261
C        -1.73613687589442   -0.33672811517928    1.71607513421459
H        -1.92939438996423    0.55576773085020    1.12406921944078
H        -2.57867303940862   -0.47204953787350    2.39090426488684
H        -1.68681264809892   -1.18591290036596    1.03799276817778
C         0.70955472731249   -0.09083482569833    1.40554965731583
H         0.79937713076677   -1.06552812884682    0.92875361485945
H         1.66931705758099    0.15687005856425    1.85149440537349
H         0.47511385301475    0.64041096073470    0.63630050985048
C         0.67118170221116    4.73449021903168    3.09139620181156
C         2.12902971790978    4.38897723125078    2.82977966210120
C         2.92842660557055    4.05902108792269    3.92091374174045
H         2.51225638222537    4.09608629063785    4.91596512962055
C         4.25374984135809    3.70697549198402    3.75224556157189
H         4.85553593487136    3.46065299732859    4.61510536548046
C         4.81053267117410    3.67712583374999    2.48449553687085
H         5.84665572633612    3.40290927454539    2.34834796830776
C         4.02849732160238    4.00916849273113    1.39387446698871
H         4.45294573503769    3.99644293900369    0.39977390195675
C         2.69895045572940    4.36077200671179    1.56418441363249
H         2.11819580662779    4.61731839748089    0.69183663949791
C         0.61588215118623    5.91096966408100    4.07495205375386
H         1.25939702371046    6.71132612295849    3.71558423879871
H         0.95626599564237    5.62682050742585    5.06817004623744
H        -0.39604401639037    6.30120844647280    4.15549242305762
C        -0.08936692512268    5.14488277552730    1.82170787129717
H         0.35216051654467    6.03880518784968    1.38739873396089
H        -1.12360389859285    5.36461061643175    2.07950707212213
H        -0.09237026009350    4.35010140337625    1.07951900263431
C        -2.51741736758282    2.61115586928522    8.76822245108044
H        -3.43015304981375    1.99400956855055    8.70998580397310
H        -2.81043806027766    3.65470257531264    8.61438977446817
C        -1.83846833048186    2.49924630510552   10.11213446934817
C        -2.01062810870635    1.40023199020844   10.95722169749855
C        -1.29511003760539    1.31808211436587   12.16242538539628
C        -0.47433069531997    2.37234077129726   12.51892605163997
H         0.05758069066506    2.33692346891075   13.45505768042556
C        -0.29577380664534    3.48310623101697   11.70004752929752
C        -0.97460468053718    3.52475172341414   10.49390362311118
H        -0.88644332937569    4.39327076530182    9.84998331265728
C        -1.42334517682650    0.05332472417296   13.00010538647708
C        -1.13388049705795   -1.12360517897858   12.08047665128128
C        -1.91259749566545   -2.27045049884601   12.03275598020100
H        -2.78345300158184   -2.36432836013123   12.66095190000075
C        -1.59365234964718   -3.30666599221282   11.17098016943993
H        -2.21591645436396   -4.18975742323521   11.14538609006639
C        -0.48991794220507   -3.21723473012091   10.34268831624261
H        -0.24777130663834   -4.02361664671945    9.66579418025154
C         0.30512016106294   -2.08511168608624   10.39405003708804
H         1.17864515204278   -2.00893383234277    9.76069360820998
C        -0.01216196526994   -1.05450643847927   11.25810807269688
H         0.61852313271957   -0.17664545931214   11.29634248400575
C        -2.82796077450754    0.02004622182364   13.61524932753194
H        -3.58528343756109   -0.07263050666658   12.84306311634849
H        -3.00005288880255    0.94625980918990   14.16036839686535
H        -2.92398129288885   -0.80815196845963   14.31323245201223
C        -0.39946104441713   -0.01179048149517   14.14249576979088
H        -0.47380445511238   -0.98286800148530   14.62868934982210
H        -0.59771357746186    0.75583691714444   14.88678784829237
H         0.61666249834560    0.10446544913128   13.77329896018982
C         0.57023208883256    4.64276182917818   12.16287028365140
C         1.73563204983041    4.11851301252370   12.98447874697440
C         2.07477115263150    4.61511903103859   14.23555956289558
H         1.49331223267574    5.40115646891963   14.69013164378270
C         3.16492240228820    4.11232769107559   14.92749466957460
H         3.40869276726171    4.51342044129944   15.90089159509064
C         3.93808924256934    3.10430668015008   14.38249551894516
H         4.78598104165308    2.71240915083466   14.92481045301745
C         3.61474869554312    2.60399910745524   13.13229607895559
H         4.21266207819170    1.81846607414106   12.69220494912615
C         2.52840993420291    3.10855697733086   12.44465375648681
H         2.28271099815546    2.70882946825480   11.47278986686917
C         1.16037305038655    5.42336827210030   10.97751963682494
H         1.57546057991410    4.75036663140636   10.22745225137376
H         1.95803314545882    6.07590813874477   11.32661668243972
H         0.40693527140077    6.04554725020296   10.50051725937386
C        -0.34905841195016    5.57980041320118   12.95967545488582
H        -1.20282258671458    5.85322285535859   12.34317951794020
H         0.17485692598425    6.49167394152062   13.23540319415389
H        -0.72089234200053    5.09044753484427   13.85768926976223

