45
CSD_code = WIKYOF | q = 0 | S = 0 | Stoichiometry = C16H20BClN4S2Zr | MND = 11
Zr       12.02968059669562    7.30841016255749    8.51116351745729
Cl       12.01397983642722    8.24975059910731    6.30843435329742
B        11.60989997527146    9.65678934297739   10.51960308295177
S         9.57143672279125    8.56994305913149    8.31851613158173
N        10.09896012225093    9.64633246071562   10.74848054054963
C         9.21406272086801    9.13871679334246    9.86592237439260
N         7.97316042811283    9.21075482324323   10.40976694005399
C         9.40151234100292   10.02742133779120   11.86336198862383
H         9.89872047877842   10.45512869112479   12.70838079701930
C         8.08969860855542    9.76204613860724   11.66202686530040
H         7.23850691121562    9.91791998288077   12.29121030985618
C         6.76353607445866    8.76878099138059    9.77907139832580
H         6.02917761858604    9.57455218703656    9.76224813781580
H         6.34372271209797    7.91344539256336   10.31170610688454
H         7.00740006665041    8.47652653351746    8.75829072411732
S        14.13767408976002    9.03475740857699    8.65493908644329
N        11.91774063746176   10.48602035118341    9.24982624794449
C        12.96341265008387   10.23690092845247    8.43415311701676
N        12.95738875806953   11.14191550045023    7.43070279112178
C        11.23840256069027   11.55632522840926    8.72961925064151
H        10.35945568034336   11.94455663313730    9.20165653632541
C        11.87061557152157   11.95661162830911    7.59978716701861
H        11.63882185417997   12.74274349284308    6.91222204056704
C        13.86859612417292   11.12111314951133    6.32215200171791
H        14.87805282412255   10.94619045244651    6.69462963624145
H        13.81933263385977   12.07045553813387    5.79480444836935
H        13.59838523762058   10.30239839386212    5.64961626847955
C        13.25288514746789    5.99000027083697   10.29605364711837
H        13.92374668096672    6.15520858909764   11.13785891534526
C        13.94630019472749    5.86923303055373    9.07216194336941
H        15.02172686694817    6.00191419980495    9.18759503244806
C        13.57232179913838    5.60261604896117    7.73237545252128
H        14.42861864257072    5.57128923343939    7.05710971575590
C        12.35376108840352    5.29125637923663    7.08330124681738
H        12.48878882037508    5.07043877133924    6.02416161049184
C        10.99502671965548    5.30671996709669    7.46344117138061
H        10.32550029950620    5.07731592217889    6.63362851377996
C        10.29532768685438    5.54129101370538    8.66965782810547
H         9.21443973091527    5.46695188286700    8.54716986246674
C        10.67299938404144    5.83221174703630   10.00140478619453
H         9.81372841210557    5.91433483123441   10.66979800839118
C        11.90111960218965    5.95164730458401   10.68669548391284
H        11.76972452073230    6.09228635052973   11.75864561231854
H        12.17322820975830   10.09136810830951   11.46528189407045
H        11.93832235799229    8.48470914789566   10.22256741539698

