96
CSD_code = WIKZUN | q = 1 | S = 0 | Stoichiometry = C37H35N8O15Pd(1+) | MND = 4
Pd        4.51740438472595    3.79131518054325    8.21931561226156
N         6.16750557605195    4.76575280354551    8.73312332957478
C         6.16630245937191    6.10042181267325    8.62506759441537
H         5.22294285895055    6.58247574169769    8.42602405412689
C         7.33361347377143    6.84155969109566    8.73788774539886
H         7.32574004433964    7.92165247323004    8.68781638648013
N         8.51217291029218    6.26415881812084    8.90596750823027
C         8.52890536847108    4.94545060572146    8.94879852768663
H         9.49496302143675    4.47350193339905    9.04952865851858
C         7.36122101853926    4.19204642729744    8.88559236032527
H         7.39911360762670    3.11994026458579    8.96544979022148
C         3.92862922874743    3.11389624942625   10.07587982428068
C         4.22303461631579    1.80176898514228   10.44329912179136
C         3.65282887881777    1.15090243893079   11.52229118528373
H         3.91387629605448    0.13184220740112   11.76552382288783
C         2.71656524352578    1.82237682618451   12.30096015100381
C         2.40486876172952    3.14405775760556   12.00395493161625
H         1.69898581520847    3.69142545265864   12.60772498653004
C         3.01127493287308    3.74745443554516   10.91615312677902
C         2.11410829830656    1.09769631715078   13.45924431173584
O         2.48588894421847    0.00731631119530   13.81266043399024
O         1.14717188684388    1.79454102658660   14.04185911096512
C         0.49776537304336    1.17304686606812   15.16101079522423
H         1.25776097159442    0.91320197589610   15.90552138091009
H         0.02722347129970    0.24570502614483   14.81821030889808
C        -0.52553863918560    2.14110515086246   15.72039223873603
H        -0.04083736351362    3.05392914695831   16.05621695067050
H        -1.03308149881316    1.68149540162719   16.56262745445984
H        -1.26045285597685    2.39385186431145   14.96100508008537
O         2.72029557924339    5.07945134712602   10.61393130075925
C         3.67442998812616    5.95693858534073   10.92893909063620
C         4.63329197970754    5.73942152034664   11.91154936003649
H         4.65066777152982    4.79790271950216   12.43934362998095
C         5.57989550321022    6.71003324465050   12.23001064502249
C         5.50998630641349    7.95849708523953   11.56993950188068
C         4.55320004417500    8.18701149438194   10.59413388647292
H         4.54307287974746    9.13788480346923   10.07864075636896
C         3.66977721104170    7.18470396304338   10.23744792816117
N         6.48733203201209    9.00097560839752   11.82018213865689
O         7.06930751952398    8.99388550170655   12.87314094814522
O         6.65467189214839    9.78948075815360   10.91712288319303
N         2.88124763035955    7.29430364771176    9.03811553172035
O         2.86582922886167    6.30261683808207    8.31681774662571
O         2.36803184258906    8.34520366707518    8.76535025259760
O         6.57274583678112    6.49531585264085   13.09714929764172
C         6.75668535326966    5.22991868027441   13.66064678656161
C         6.30843981230428    4.94913427983265   14.94074502984838
H         5.76299867818745    5.70456364323878   15.48303308579376
C         6.59077949072187    3.71756879525436   15.50656277377035
H         6.25507469782654    3.49988018341476   16.50699660422482
C         7.30880466744707    2.76693026067482   14.80121619640136
H         7.55011069220287    1.81135563908571   15.23784071906226
C         7.76120628738457    3.04508498313708   13.52077715690683
C         7.49602777484609    4.29000603013191   12.93747427915916
O         7.96092241605454    4.57145433590758   11.68228508040699
H         8.17308326712119    5.51460775824972   11.63937904256524
O         8.56771678163787    2.13800365955029   12.85740133154298
C         8.17686913378272    1.65491089827135   11.68101028187482
C         9.13399958149819    1.14409298195560   10.77445277774284
C         8.75425277345924    0.75324185448917    9.50240191944774
H         9.51136571151905    0.43285877165435    8.79888446440398
C         7.42761515491134    0.83724671889474    9.10765443355752
C         6.43638353976602    1.21313017665441   10.04439030325817
C         6.83436953350644    1.63491038274067   11.30398471338482
H         6.09288915585889    1.96200532683666   12.01646764322551
N        10.54408176512401    1.10346011776390   11.11640147099907
O        10.83831386630293    1.08671582358007   12.28305667880673
O        11.31537595521586    1.09742281935986   10.18494395135434
N         7.07816361588752    0.71924778571201    7.72356957174523
O         7.72055434039040   -0.01594024852325    7.01938086373792
O         6.18310188647725    1.45321801640597    7.31343852621541
O         5.16590312408571    1.15401023256657    9.64052027692499
N         5.03200447359157    4.33997746318194    6.09381141731034
C         4.12775715435359    3.39544326984786    5.41999282658260
H         4.57136406605990    2.39815787755703    5.48474119446980
H         4.02322923214933    3.65382446072659    4.35553786519621
C         2.75463826716899    3.39852537679105    6.07604703489069
H         2.06489949557127    2.78652036450205    5.47825074324547
H         2.35953014881684    4.41799039838859    6.10224488142329
N         2.80431513840934    2.89162769091270    7.45928579817599
C         4.67492961320963    5.71998612275629    5.73867592616912
H         5.46836050715391    6.39933366787808    6.04940836864434
H         3.74751402075354    6.02092771474576    6.22593704785029
H         4.55677904398609    5.82334761852781    4.65352542222631
C         6.39520559373586    4.08165092622215    5.61871094579161
H         6.69245981341789    3.06873900061659    5.88574091677249
H         7.09853813882308    4.78746272857794    6.06101887867583
H         6.45173010681994    4.18770383064030    4.52937800315925
C         1.53488506509783    3.25738755868917    8.10144471884734
H         0.68998202888209    2.93139047004992    7.48545464176756
H         1.48599847403805    4.33939855508904    8.23088138918816
H         1.44809192286785    2.78106425352113    9.07599329770116
C         2.92822623015242    1.42825217191063    7.44667264792233
H         2.16365806762891    0.98311900413293    6.80056841123319
H         2.79375637391784    1.03570036590776    8.45315703858858
H         3.91551763647576    1.13061337322649    7.09358294027181

