105
CSD_code = WIKZEW | q = 0 | S = 0 | Stoichiometry = C48H51IrOP2Si2 | MND = 6
Ir        7.49028403098680    2.46943363296032    3.20187883408235
P         6.46405943556490    1.11464782837044    4.91446805615213
P         6.76070995807809    4.68012618669174    3.76985171131379
Si        9.52140255410782   -0.27854131825756    1.75586090276677
Si        9.34586478749963    3.49052955572580    0.06802612708262
O        10.35286597362925    2.81477114277602    4.14667003423765
C         8.26092580238315    1.11643612073257    1.69758580034531
C         8.25259378682563    2.42448382318316    1.15533463018788
C         7.23035621991341    1.42765674582451    0.62254205360304
C         5.84407838797755    1.63129598502381    1.04974366059898
C         5.68420263888705    2.14051431782756    2.27296552928552
C         9.23756359169773    2.69807192220691    3.86112291549954
C         6.26218227155161   -0.67565501064804    4.56881165646983
C         6.01565913520220   -1.07070888218040    3.25702440574937
C         5.82380730070322   -2.40497084478216    2.95001805230337
C         5.88707531133093   -3.36448553356213    3.94705557539862
C         6.14142606487023   -2.97905407304387    5.25218049992971
C         6.32496030529212   -1.64363895590631    5.56548112844437
C         7.15997846160169    1.01254861263922    6.61295100739397
C         8.54673300808683    1.00833623506617    6.72913530072539
C         9.15463491925181    0.92729295839096    7.96795144312567
C         8.37913647755630    0.85366676242343    9.11337829117183
C         6.99810452243231    0.84658118190384    9.00848223142795
C         6.38914757558751    0.91998753342278    7.76805260658887
C         4.72682286859765    1.55466689033405    5.28037069269803
C         3.65922009596442    0.86340539593408    4.71878137612508
C         2.35957122872723    1.27429564937777    4.95608445285999
C         2.10945418562063    2.37206224776447    5.76133318226411
C         3.16839368695554    3.06856244515282    6.31973448408044
C         4.46847010335720    2.67347057442354    6.06787433156985
C         6.91864069710419    5.31216567285629    5.48670319463602
C         6.54620490764075    6.61340462927899    5.81441844335119
C         6.70587385546715    7.07487960370672    7.10737860446646
C         7.24776972921723    6.25066080623129    8.08244942867268
C         7.64237555039248    4.96433752580301    7.75777370319889
C         7.48190827969239    4.50223651605442    6.46289322129968
C         5.04440799921949    5.09462171269911    3.32999970902557
C         4.70979407885342    4.96754474440647    1.98158618152998
C         3.41184549595013    5.18175845367264    1.56142594156732
C         2.42932812906642    5.50546792497203    2.48462500372932
C         2.75302187146565    5.61615782968696    3.82552314767351
C         4.05448925174090    5.41005048144562    4.25024807610737
C         7.67930916133458    6.08422236169232    3.02636868789585
C         7.12074041579860    7.06064850476737    2.21160859126378
C         7.90149017463598    8.10383206338495    1.74112579473550
C         9.23945680326404    8.18775743038971    2.08335845421957
C         9.80021537460136    7.22321347670588    2.90568473272883
C         9.02546981640981    6.17876912803350    3.37062338963048
C        11.31661229627441    0.37034504468295    1.65128589367669
C         9.16854569454817   -1.42905395786804    0.27262741009987
C         9.39187916171844   -1.29358656120019    3.37002439320242
C         9.86133629478913    2.44971822569912   -1.45483893909789
C        10.89936219367510    4.16189584213263    0.94214352735182
C         8.29803058924340    4.95437459998441   -0.57157600380634
H         7.39840949613359    1.01603052625816   -0.36995687853202
H         5.03831459183706    1.38310722873927    0.36308161249093
H         4.66155085049540    2.31654280041723    2.61950370319639
H         5.98087633344039   -0.32248233707560    2.47919374734132
H         5.63038283374906   -2.69780178267057    1.92816608159401
H         5.74407672317959   -4.40833930492827    3.70844742086973
H         6.19736185356879   -3.72257468451459    6.03429542554792
H         6.52342595623280   -1.36407624206887    6.58964056887956
H         9.14825636406431    1.07465320807894    5.83275818458151
H        10.23227343932520    0.92616988113359    8.04024666627665
H         8.84886669637017    0.79864255696259   10.08445104650471
H         6.38901579681953    0.77889576443370    9.89851981684538
H         5.31087417512036    0.89896490183366    7.70073259312530
H         3.84415778473900    0.00359086081961    4.09136172070076
H         1.53776374714291    0.73203692682990    4.51102209910158
H         1.09343065208290    2.68542846530210    5.95134400439697
H         2.97924879299162    3.92438391929253    6.95212083889669
H         5.29425532067586    3.22873345805287    6.49241309433591
H         6.13548422195968    7.26170786038429    5.05236199621495
H         6.41067515488937    8.08366337062869    7.35759371828340
H         7.36913362360975    6.61653667187506    9.09139132697599
H         8.07545525751620    4.31813024552200    8.50771065309211
H         7.79923520408605    3.50196100907857    6.19782858322089
H         5.47804724548079    4.68371776620982    1.27451564236871
H         3.16082615369969    5.08540335543508    0.51505220894015
H         1.41174252269175    5.66446579542352    2.15874261893925
H         1.98744999230680    5.86050480064871    4.54784955666876
H         4.29626480103224    5.49601866974674    5.29895313252228
H         6.07580489346897    7.01386446678778    1.94090206950342
H         7.45795053791435    8.85579162690202    1.10447758519189
H         9.84338046737298    9.00322145474675    1.71420292629331
H        10.84256761894680    7.28727348125686    3.18231732701551
H         9.45724118453817    5.42423178167032    4.01409816090316
H        12.02824218933158   -0.45069273141647    1.66574512412077
H        11.49251033185886    0.94314765208304    0.74699879166233
H        11.54346657664666    1.01352378854339    2.49554960824191
H         8.14698118802906   -1.79440533041821    0.30012591732167
H         9.30966258172964   -0.91755226803405   -0.67411685583737
H         9.82771861681150   -2.29151532189290    0.28182448596492
H         8.66036853826101   -2.09070038332210    3.29081833644807
H        10.34634643719839   -1.74688702190370    3.61988136410069
H         9.09588578101581   -0.66751487593465    4.20663985408508
H         9.00410258246559    2.23306160701639   -2.08455729685608
H        10.58548243347359    2.98289855363025   -2.06377503163169
H        10.30447721987305    1.50182662271269   -1.16751023419582
H        11.47443188400775    3.37255214387573    1.41276880300863
H        11.55038692937799    4.67212696151846    0.23823413904035
H        10.62650302897816    4.87509737085163    1.71213796014849
H         8.02795968040436    5.62790528920355    0.23519158899540
H         8.83955730491589    5.53360762671709   -1.31366288348662
H         7.37902389589613    4.60581062457501   -1.03344448394810

