98
CSD_code = WIKZEX | q = 1 | S = 0 | Stoichiometry = C40H36N7O14Pd(1+) | MND = 4
Pd        5.45070140185998    6.82455071045151    5.00286504014377
N         7.11057788589275    8.00757188014787    4.72173668032734
C         6.93068954237182    8.87447064975710    3.54994934966945
H         7.71615852051042    9.63780696752915    3.51578738767002
H         5.95786383507607    9.36230368973423    3.56970115510370
H         6.98953823584388    8.27921380244975    2.63913826110698
C         8.40283893836006    7.32145120329852    4.58774569421557
H         8.46682633856670    6.81712361616957    3.62510794474794
H         8.51896709073904    6.58511589129739    5.38228535137741
H         9.22241579023307    8.04554445313435    4.64961234326481
C         7.17083699205536    8.81929756813100    5.95247180897850
H         7.58521798430746    8.18871676358038    6.74362054491119
H         7.85266148810195    9.66878522852164    5.80559586227905
C         5.80346835739512    9.34680578638780    6.37354182730155
H         5.37446032139726    9.94820350036652    5.56749117590298
H         5.92185676133639    9.99476348274297    7.25424635021277
N         4.87332612892082    8.24343857698429    6.66531781120590
C         5.14653486572013    7.68409207344596    7.99514305490263
H         4.95826786192005    8.43302424491327    8.77418021120737
H         6.18045386616896    7.35930062621280    8.08159268790582
H         4.49011752186148    6.83097815286736    8.17676369442320
C         3.50616206591104    8.77434238379120    6.70264809241661
H         2.80004963219865    7.97046931615986    6.91153625907876
H         3.24680987754809    9.24625240621509    5.75802617899397
H         3.40848540558247    9.52678897914631    7.49423258637224
N         3.83816887492114    5.81999086816176    5.28271193830614
C         2.71439826482794    5.56940748599904    5.41022217849657
C         1.34892669793132    5.28468172784487    5.51759724549334
C         0.88592136531993    3.97277412776937    5.68683951998503
H         1.57618986539056    3.15113888122141    5.79664628190914
C        -0.47291175555885    3.73156649626330    5.73047731167971
H        -0.82023989027037    2.71878039226026    5.85876310818528
C        -1.37622201205369    4.77839679216088    5.61616958315365
H        -2.43592653322087    4.58152329137232    5.64138925935216
C        -0.92147442321390    6.08231768736794    5.47107024001409
H        -1.62474392896848    6.89441056590910    5.38643107576997
C         0.43200020082099    6.34547017815941    5.42337484129614
H         0.78581364519435    7.36005233528428    5.31872781682485
C         6.05440327409276    5.62962079016072    3.45102783008770
C         5.68991592285994    5.94745817652005    2.14512279744571
C         6.26877759269233    5.36622529489645    1.03237414907235
H         5.97578062998073    5.64492923436617    0.03133244783757
C         7.25916684743943    4.40436683418561    1.21288832372793
C         7.59995011442885    3.99098969053370    2.49730831852208
H         8.32968864600299    3.21160556416139    2.64707132627903
C         6.98473797343783    4.59749306240680    3.57828925430544
C         7.88061183498724    3.80649798199258   -0.00660917343273
O         7.49083482716675    4.04222687773603   -1.12232238733833
O         8.89084461007436    2.99787642535091    0.28691421709970
C         9.56159432284808    2.38584953013448   -0.82440463810554
H         9.99389417475302    3.17597147761698   -1.44715802070224
H         8.82154496251670    1.84657763196201   -1.42516506391388
C        10.63049665062919    1.45571522231386   -0.28632400367406
H        11.34400485552364    2.01026109935407    0.31699800345060
H        11.15527482113326    0.99201077874513   -1.11569506370722
H        10.18309696484538    0.67810521941177    0.32691826441130
O         7.25216690188504    4.18606494139956    4.88631746154590
C         6.23830439669967    3.54916572521769    5.48899975220599
C         5.37617917320134    2.69854067059860    4.80131107291416
H         5.48433551359855    2.58251897750618    3.73302328618202
C         4.41367011858202    1.94565749362283    5.46704947514442
C         4.32898175642356    2.04874489195309    6.87485478498565
C         5.16942982928456    2.89471091180778    7.56869196662895
H         5.08082601509449    2.98136724490016    8.64346675329145
C         6.08938032578337    3.67830992797332    6.88726363227974
N         6.75510864612441    4.72667572413816    7.59268611432389
O         6.85527116299987    4.64594867830933    8.79339726840023
O         7.11156602649452    5.70430254831840    6.94502211948813
N         3.28716383994739    1.35919577818939    7.61203437184131
O         3.53548953976012    1.04457206236919    8.74690923405796
O         2.22829255842087    1.21358817215574    7.04533600867562
O         3.63844671576436    1.04798265672267    4.85719267353477
C         3.22867607882107    1.17142805649278    3.54566825724052
C         3.18602042435549    0.02077975469305    2.76987946916761
H         3.57525595758826   -0.89999110549785    3.17193231674734
C         2.61159862357304    0.07142476870315    1.51141983321198
H         2.57388205650599   -0.82023526714314    0.90685781058627
C         2.05668378509782    1.24519685033879    1.03442242524226
H         1.55992710086861    1.28693552277757    0.07945019440216
C         2.10299768145235    2.39052196180432    1.81954326286898
C         2.71949105491513    2.37196138439505    3.06581025381977
H         2.73961297572456    3.25921814621977    3.68299812685666
O         1.37937756328168    3.48024027320421    1.39199700970593
C         1.72658538859323    4.72725860226450    1.70756504456464
C         0.71645513559141    5.67486394367929    1.99520036042450
C         1.06415971996607    6.93643953085493    2.43473653247032
H         0.28548123460020    7.62591970440792    2.73294465261672
C         2.39597472118395    7.31131839816874    2.54699521522256
C         3.41635647321056    6.43616505367895    2.09945078934785
C         3.05705152082480    5.14067682268972    1.74414002368224
H         3.82322946602819    4.43480140074827    1.45974518177573
N        -0.68562116168129    5.31519399814492    1.97466119650730
O        -1.01585529651213    4.33710513429231    1.35537189222336
O        -1.42543834235909    6.02570568647373    2.62047714032811
N         2.71331800869559    8.47004150883282    3.30885650901946
O         3.87417768178809    8.64431167517823    3.66138139956415
O         1.80011493517563    9.17760486015849    3.68355813332555
O         4.66556858627502    6.89786325419904    2.03725665796280

