109
CSD_code = WILBIE | q = 1 | S = 0 | Stoichiometry = C44H41N8O15Pd(1+) | MND = 4
Pd        6.33580781137175   12.69576154318713    3.01433831610424
C         5.34210851870478   12.12280242812772    4.67215036293330
C         4.47306094643926   11.03441238919515    4.59051595001190
C         3.45516781776897   10.78622600565898    5.49195435338377
H         2.80598451099301    9.93331716295021    5.37231228152756
C         3.27454675374101   11.66826716352046    6.55350172968528
C         4.14319092772127   12.74550361510612    6.71191143200635
H         4.01661440933820   13.41029864789233    7.55259529345760
C         5.14451760936722   12.94718829533723    5.78268724411987
C         2.19764396410892   11.47922465888188    7.56484257609134
O         2.01865811391426   12.23113767774439    8.48998353944630
O         1.47470079247173   10.38520886444411    7.33541544782996
C         0.41707196313582   10.11009628787946    8.26314925336234
H        -0.38266037448960   10.84129078067093    8.10416413157349
H         0.80047605980836   10.24043636781904    9.28060177599546
C        -0.07458669457789    8.69517077124033    8.02766811119376
H        -0.44107868401793    8.58751690890544    7.01046253422998
H        -0.88185043268466    8.47370759601026    8.71878948881024
H         0.73076625584771    7.98292437416630    8.18629944029306
O         4.71932102180354   10.16588345293181    3.51413792691093
C         5.65152352847979    9.23257272583178    3.72818481057037
C         5.96106151604965    8.74525371113502    4.99713837050120
H         5.47686946404673    9.17128730912058    5.86337996511007
C         6.87878723886409    7.71557734305920    5.19044239188662
C         7.47768217029177    7.12837831239304    4.05582120492390
C         7.23007513137423    7.64535166113981    2.79617434826420
H         7.75770248950255    7.24038962699615    1.94265175026735
C         6.36006607287939    8.70901029599577    2.62155154993469
N         6.32447548737629    9.36388916164343    1.34075645408945
O         5.98706207687806   10.53490586237708    1.30869120442669
O         6.69024158385623    8.73484915315593    0.37637909325220
N         8.44707607057676    6.06061990947258    4.18965936715108
O         9.27364747273299    5.97937726199506    3.30834032204238
O         8.37667405120758    5.35157992057254    5.16073583532278
O         7.19494719208236    7.27582177375320    6.41707581410879
C         7.43396457645356    8.16253138847953    7.44403225580260
C         7.14938862029973    7.75881726003136    8.74278026567383
H         6.66486883437854    6.80999868054273    8.90298381427900
C         7.52865471985771    8.56372298554481    9.80240294392958
H         7.31504195811922    8.24821099389208   10.81094507452472
C         8.19884636638458    9.75781326952774    9.59006648483256
H         8.52920260497540   10.36841807627139   10.41400271786224
C         8.47674771395577   10.15305820066303    8.28991902074575
C         8.08031319546189    9.37064374158799    7.21366357844437
H         8.34163408461892    9.67772687397094    6.21454660143718
O         9.28868551960841   11.25239134818294    8.07574916753273
C         8.96043617469152   12.23111139759055    7.23566996827041
C         7.64011059250029   12.55700811397128    6.93693857077534
H         6.84672946331106   11.96890955434443    7.37459723996920
C         7.30955044507862   13.64200395123810    6.12852123065086
C         8.35405771173965   14.41952988027932    5.58041594432044
C         9.66997656275523   14.12168536539543    5.88668520916109
H        10.46562524323197   14.71444475796419    5.45564395880262
C         9.98960446280696   13.03382283377564    6.68180335233227
N        11.37593814938655   12.67108876151038    6.78457280822328
O        12.18641912676102   13.46224043439380    6.34614033249130
O        11.65716325536684   11.57601024365322    7.21970242361396
N         8.09801991266588   15.35693373602846    4.52847732137153
O         7.07323195435690   15.20832671454577    3.87386802174788
O         8.94932482224451   16.17917857332847    4.27168173308345
O         6.04161800763619   14.01205572351573    5.91341700935681
N         8.25618529922985   12.08778472116852    3.41580554413534
C         8.64541581634891   10.93446890364884    3.97412651603376
H         7.84579189406476   10.27215685983192    4.27542573424190
C         9.95094696911362   10.56915310491762    4.17552803186275
H        10.16284877082672    9.61696350217031    4.63040405616929
C        11.00428878274139   11.43602652456323    3.79539785224315
C        10.57853899796806   12.63445012207242    3.17165488900877
H        11.29196275114782   13.35930720510095    2.82175764202189
C         9.24504395517221   12.89686271981392    3.00067547894519
H         8.95075446090319   13.81257926865277    2.50123640422605
N        12.29177405867053   11.14520655818959    4.00791208174281
C        13.32238782357804   12.11409064366797    3.70842181273600
H        13.26668294923775   12.43047823268633    2.66624991574660
H        14.29714541578954   11.66554280544950    3.87399504367263
H        13.23399426939054   12.98937296758708    4.36019051405501
C        12.66807871140121    9.93882311430531    4.71086715307670
H        12.34265559049498    9.97766343915175    5.75593933562467
H        13.74891997504607    9.83684324956777    4.69729074804213
H        12.23946755658099    9.05915395356705    4.22886965868509
N         4.55908853499277   13.42018163745746    2.50998366192682
C         3.84899928780624   12.82149604953060    1.54962663850426
H         4.24496741931606   11.88577546892532    1.17205253386520
C         2.68177356333072   13.33969806817915    1.04617753485646
H         2.16813155656802   12.79436355567068    0.27411076135884
C         2.17147023540911   14.56146814554411    1.54036719311911
C         2.94226611820191   15.16879890937405    2.55764104079770
H         2.64051363758657   16.10007663787865    3.00315721916391
C         4.09751997164353   14.57565251547102    3.00037081382079
H         4.68910922880762   15.04530724319013    3.77712536728980
N         1.03714169221530   15.11143058401084    1.07164387234608
C         0.54331755864633   16.35442281441876    1.62036786656038
H         0.34172447312905   16.25868398066689    2.69005726010119
H        -0.38311202470234   16.62820585880571    1.12423259134202
H         1.26252964209814   17.16287215946158    1.46758184451246
C         0.27481801728139   14.45146342135354    0.03596339303187
H         0.87157757224450   14.32937516354941   -0.87128049395503
H        -0.59661880066333   15.05031634884757   -0.21173688384482
H        -0.06954509868006   13.46845928420230    0.36687548317750
O         7.03153599452025   13.24199690401238    1.00241432188048
C         6.91638097939671   14.15434792035095    0.20623206769609
C         6.49826581884663   15.53493184979083    0.60991748494667
H         6.51296738506430   15.63539049111430    1.69611684929852
H         5.48598595707555   15.72139749602142    0.25276901589799
H         7.14870147020050   16.27863016218400    0.15522913540283
C         7.22329363965387   13.94616781320012   -1.24550256328145
H         7.28263774019626   12.88475109168728   -1.47250011481163
H         8.18454982696137   14.40557445920275   -1.47398121460850
H         6.47381763935233   14.42401419009222   -1.87065181285916

