84
CSD_code = WILBEZ | q = 0 | S = 0 | Stoichiometry = C41H37NO2P2Pd | MND = 4
Pd        5.22278481469481    1.92839203188571    3.42074478897160
P         7.39361312451231    1.68187174329592    3.96442137380393
P         3.03872686118142    2.02654012542233    2.94036416993427
O         4.75589555462065    3.24232203812388    5.82487554081121
O         4.61562946775544    1.00558502367150    6.01092293139212
N         5.74444414684347    1.96818220680113    0.29450740393994
C         5.59210825621927    1.92229851932825    1.43682450026262
C         4.81749040521555    2.13983926981207    5.31642780986493
C         4.32882695754974    1.15060866951692    7.40659027206352
C         4.15765629430601   -0.23060226457790    8.01590506387864
C         3.92424961502978   -0.14508893469157    9.51796327154409
C         7.83442980861924    1.70133293447609    5.72990379433524
C         7.68075725300905    0.51875513724223    6.45069995851881
C         7.89287984907779    0.50532292195420    7.81530533813387
C         8.24364760167972    1.67490369493596    8.47300611501685
C         8.38011426697468    2.85562175846502    7.76251654750481
C         8.17344453190174    2.87392537678300    6.39421793176867
C         8.18987693918723    3.17836449982388    3.30712309327371
C         7.34844123332527    4.28113187590794    3.15721810868336
C         7.84565817935056    5.46557108999052    2.64868657286962
C         9.17931706024227    5.55035743649322    2.27825756161844
C        10.01408613045226    4.45452950484691    2.42103327490857
C         9.52501218976002    3.26630201169575    2.93617607397161
C         8.36661589547524    0.28321044968816    3.33661571176601
C         9.60623024345834   -0.04870671302450    3.87740433109200
C        10.32020534595520   -1.11213441898559    3.35737927891582
C         9.80284566691260   -1.85019584874115    2.30388654876526
C         8.56664405959341   -1.52694589611031    1.76937996270607
C         7.84743211323698   -0.46341305065070    2.28466790421568
C         2.50893924397730    0.45511150486996    2.20933902083111
C         1.23184657155778    0.24121261698595    1.70170015568583
C         0.90377162699229   -0.99551873026454    1.17639593764056
C         1.83579986200750   -2.02165196907259    1.17607603095555
C         3.09574130142000   -1.82277886220979    1.71826101390102
C         3.43330833448208   -0.58642228824963    2.23765732210774
C         2.79134459580919    3.39318541228438    1.77698844080730
C         2.14052048686631    3.34069820220080    0.55433318101931
C         2.11610022057653    4.46801374236306   -0.25087477072901
C         2.73602270710548    5.63598891270169    0.15765327508256
C         3.40148556688272    5.68562938034455    1.37416016951231
C         3.43780248513727    4.56432192543113    2.17733523639963
C         1.75800048576469    2.27426014074521    4.21004145156776
C         1.03117042244816    3.44889405536087    4.35314729855711
C         0.13139919954848    3.57665633897233    5.39762523960037
C        -0.04215587245386    2.54227872611433    6.30110938098408
C         0.68397623400538    1.36881465875624    6.16157636328995
C         1.58188401213818    1.23489557689880    5.12160367544951
H         5.15781298250296    1.69167865106219    7.87910002214768
H         3.41869810701274    1.75309238645827    7.51739753557500
H         3.31561632881852   -0.72934678475971    7.53225731564720
H         5.05578606982733   -0.81497960560910    7.80863860944160
H         4.76955129748223    0.33439929470862   10.00650408812218
H         3.79859588592984   -1.13906446549302    9.94021679564259
H         3.03102492424408    0.43731238623333    9.73261634285316
H         7.38663023212874   -0.38387471830048    5.92824593678662
H         7.77797108025662   -0.41379570330064    8.37207985403156
H         8.40215392598532    1.66592715335628    9.54163856954123
H         8.64221796978216    3.76880374490221    8.27667500850760
H         8.26957983715221    3.79809639926626    5.84079740333873
H         6.29505636855319    4.19616314846354    3.45448935836828
H         7.19619923008954    6.32041693609479    2.53090485592688
H         9.56721985451261    6.47201048533284    1.86997974026813
H        11.05056342343601    4.52302140522126    2.12412536119106
H        10.17355501050306    2.40730101454299    3.03511464763947
H        10.00113800858399    0.51877473898600    4.70986403795563
H        11.28309695557280   -1.36810676937176    3.77548307817490
H        10.36501674325909   -2.68070720659398    1.90278615673947
H         8.16258900481788   -2.10305450949089    0.95024832872757
H         6.88249076926767   -0.19328696895906    1.86672778380790
H         0.50011475604651    1.03752134909192    1.73103452687367
H        -0.08290929436179   -1.16268154231629    0.76926314801967
H         1.57384416775009   -2.98382016984625    0.76102055217968
H         3.81105188854314   -2.63201194049778    1.73490801436387
H         4.42034165453432   -0.41301710323484    2.68744965910855
H         1.67868952979753    2.42347396646568    0.22009345108331
H         1.61703375406207    4.42934943269447   -1.20808136964285
H         2.71471477824046    6.50801197839637   -0.47927285109376
H         3.89755759301305    6.59393384344499    1.68392457709086
H         3.96398218517143    4.57266515288831    3.13422789915966
H         1.16965931600115    4.25967501321956    3.65111176204204
H        -0.43282853385673    4.49120733253603    5.50879874725739
H        -0.74047055221719    2.65032553636140    7.11811134823291
H         0.55084823319500    0.56263483017236    6.86895395649197
H         2.16648516368593    0.32898077053242    5.00861209073851

