100
CSD_code = WILBEA | q = 0 | S = 0 | Stoichiometry = C41H35IN8O14Pd | MND = 4
Pd        3.70515531507768    9.21580341762554    3.63924354542894
I         3.80774899415882    7.43375850496180    1.75805624491837
N         3.63789913813960   10.60717589730008    5.13486144531655
C         2.50211193058278   10.88419304234522    5.77296736515753
H         1.62502556058029   10.33178135341727    5.46156106828625
C         2.41290315001629   11.81811945708159    6.77799138923469
H         1.45580509608434   11.98145306213986    7.24200248799298
C         3.55500168821837   12.53662866176846    7.18196785302906
C         4.74311933150598   12.22166154310004    6.49323463816268
H         5.67247616470705   12.71160909347807    6.72692541958267
C         4.73488150706854   11.27033296135553    5.50129604701717
H         5.64764555839056   11.03138552321946    4.96878801027633
N         3.51317620505930   13.46946893593416    8.16170911229230
C         4.71136679678220   14.17430132550281    8.55103518782698
H         5.47131866073465   13.48328474883800    8.92716799388698
H         4.47602046021142   14.88278623716244    9.34054417544476
H         5.12968366887222   14.73087292688034    7.70780353905114
C         2.27659626052972   13.74619522224155    8.85373335766257
H         1.51100266050687   14.10407440878653    8.15971831829165
H         2.44297463884563   14.51692647862330    9.60138077255626
H         1.90048092186948   12.85330607216534    9.36110765269587
N         2.91131965501408   10.66144670795445    2.30364023239245
C         3.44937521176339   11.88073352691256    2.23845823024481
H         4.30885180753438   12.06929273482784    2.87059834973231
C         2.99076444103311   12.87464713426717    1.40693496464785
H         3.49939687305816   13.82342799416047    1.41427463909822
C         1.88702762959538   12.64052155678027    0.56472624956260
C         1.32522589423567   11.35386771413827    0.65449495569947
H         0.48352029632059   11.06226362748528    0.05124196647244
C         1.86437765998340   10.42474743476227    1.51090413869558
H         1.43349035046676    9.43279164390084    1.53842517324429
N         1.39905909762560   13.58798751853538   -0.26986297805163
C         0.27456431500991   13.29433627518883   -1.12673201715410
H         0.51838087360639   12.51288584999524   -1.85306261083983
H        -0.01088103882232   14.19100651801068   -1.67050451336876
H        -0.58468908625879   12.96810165512884   -0.53608040631933
C         2.07882492797952   14.85332501258999   -0.41239658160522
H         2.06140695600232   15.41476152343595    0.52634507216530
H         1.58159420636879   15.44931034498789   -1.17293141483504
H         3.11977783759863   14.71072953669235   -0.71666051973879
C         4.43934811638772    8.03870265066921    5.08977979052468
C         3.59467061846730    7.39822969239360    5.99833225886295
C         4.02147905395704    6.87885264708589    7.20264369063816
H         3.33247295656677    6.40649813570245    7.88612151084030
C         5.37084836073302    6.97504183528099    7.54292133324417
C         6.26941557104106    7.54494784790184    6.64250024644976
H         7.32140679035567    7.59428351906636    6.87484850271923
C         5.78773472953325    8.05198393834591    5.45229265346209
C         5.80698140822630    6.42896622723131    8.84618622016304
O         5.06371704374396    5.92128401097360    9.65227009798181
O         7.12611794786446    6.55263657062955    9.04036536217643
C         7.62867027232604    6.04226222804589   10.27575987605223
H         7.36866704140213    4.98010836848886   10.35059718414810
H         7.13629856788786    6.56894330222647   11.10143923519398
C         9.13126261651695    6.24877661517842   10.30410407443024
H         9.59799107200467    5.72289695390838    9.47531225626884
H         9.53355305410974    5.86743824934039   11.23791882676874
H         9.36640143071655    7.30677552323016   10.22155507564889
O         6.65828705141447    8.62915120696597    4.51487769381037
C         6.91136515911075    7.88769837125915    3.42696690175362
C         7.20459759391563    8.54470303583056    2.20935898523145
C         7.68456313619913    7.81998964222086    1.13340668488293
H         7.92258739747069    8.32812214081603    0.20883455693430
C         7.81801460955850    6.44365726789302    1.20365427480621
C         7.38183534954379    5.75355309769158    2.35795216850312
C         6.96221658483597    6.49974110017855    3.45708153617262
H         6.67823323568716    5.97855341550566    4.35978355907802
N         8.35136703712512    5.75125469589844    0.05740800254385
O         8.49804799354977    6.40026524425039   -0.95573495973071
O         8.64263843497964    4.58376727069266    0.17531149328561
N         6.85023857783290    9.91523225283113    2.02029628819198
O         6.02991756395865   10.40419105268630    2.78549401524080
O         7.33654714513968   10.51486880096146    1.08316123843161
O         7.44712301971755    4.42103169928872    2.39320980352473
C         6.56799149458015    3.66961195961387    3.14293333710872
C         7.08341135398009    2.58450770863218    3.84142309256945
H         8.14936829496498    2.42546758016659    3.84943830020274
C         6.21905976636420    1.71274635817052    4.47917411187103
H         6.61515325695010    0.86591978921048    5.01714115061749
C         4.85075783831701    1.90590296001209    4.41791282112841
H         4.16436670505766    1.21491785086772    4.87928652430162
C         4.34436169845044    2.99354727633103    3.71653090627435
C         5.19726962865920    3.89394406020970    3.08884709379875
H         4.79896978364585    4.71663814157377    2.51284182455657
O         2.97927948072322    3.05953082076670    3.54371442357239
C         2.30654983213960    4.20676598951342    3.65260236861753
C         1.11684414275568    4.38843020814513    2.91006878616475
C         0.45102081646309    5.60058364661820    2.96524006060932
H        -0.39949075959811    5.76639927802703    2.31790766049564
C         0.88624499655603    6.61586485790457    3.79840964986173
C         1.98487505453145    6.39783847035049    4.66283051247941
C         2.69895603001206    5.21226287758513    4.53318601165570
H         3.57735077428629    5.05375755132843    5.14166290446638
N         0.59593966192823    3.36427715207757    2.03983086163004
O         1.05354388866928    2.24866941913911    2.12573440084113
O        -0.29516211635924    3.68878075735728    1.28457980119417
N         0.33181140141852    7.92134691300430    3.64214616181272
O        -0.74272839386687    8.03061035948088    3.08468634383352
O         0.99882472523902    8.87772516891578    4.01587128893397
O         2.25153248621682    7.31044105064044    5.60588060901202

