87
CSD_code = WILBOJ | q = 0 | S = 0 | Stoichiometry = C42H39NO2P2Pd | MND = 4
Pd       12.16598162411941    3.22772581163232    0.55191548079157
P         9.92741518070014    3.37319032122772    0.75252968117456
P        14.40547242509005    3.18315562573664    0.41068294231174
O        12.17248664256775    0.95102741201205    2.44268429615958
O        12.15796830684444    0.66767591417256    0.18952403700360
N        12.24484582040943    5.92811739354399   -1.12876418168488
C        12.20423682224990    4.97823867115558   -0.47647593629644
C        12.17077159855828    1.41108870349716    1.32352980971425
C        12.09083956035750   -0.78454562942354    0.19883033452403
C        13.31129775179707   -1.36725875171417    0.90813862711268
C        12.09482350691117   -1.16788153025827   -1.28136137424758
C        10.79574210089666   -1.23654278745415    0.87110489835434
C         9.32116378999877    3.46954732153847   -0.95812007509247
C        10.11277528169317    2.81479232410002   -1.90150580631751
C         9.75930537194959    2.83725599249981   -3.23654270061147
C         8.62160414049337    3.52231365970768   -3.63611778242532
C         7.83925668956893    4.17976655955174   -2.70156230481509
C         8.18358118449943    4.15581394555138   -1.36069009216494
C         8.95928966873582    2.01151815054901    1.47438431909379
C         8.06328838553882    1.23305983229581    0.75232818401615
C         7.39634936276218    0.19370317175496    1.37906404079679
C         7.62673816340080   -0.07624317664179    2.71736869223331
C         8.52736442336638    0.69411456431416    3.43792109319054
C         9.19337251877438    1.73307431184170    2.81921945487966
C         9.21971557490479    4.80470809452590    1.61952922878711
C        10.03732548374023    5.90118368566294    1.87085398158594
C         9.52822156851921    7.01103171774233    2.52070063874721
C         8.20396606106319    7.02908234726450    2.92600033490512
C         7.38837329098968    5.93431507610937    2.68543561868769
C         7.89146347354498    4.82159678920599    2.03730445508287
C        15.05452467170725    4.36201091862602    1.62754125163889
C        16.41188611464467    4.62445801598678    1.78424572857398
C        16.82858614562294    5.52604272248302    2.74664790808604
C        15.90026965851800    6.15137579223069    3.56438317908985
C        14.55080899585853    5.86319062887309    3.43679417600606
C        14.12690952335351    4.96690421043303    2.47262573408613
C        15.46382516046503    1.73987838451414    0.74447742914444
C        16.20398226118909    1.09253880869293   -0.23737480726829
C        16.96807478789615   -0.01348667510235    0.09477642856569
C        16.99420774500384   -0.47710238612809    1.39946775538274
C        16.24821943050228    0.16151342326034    2.37891107468359
C        15.48158419661152    1.26294251029015    2.05355836875899
C        14.89896459341192    3.69003829708589   -1.26020792548979
C        14.15886528119004    3.06735081772656   -2.26557135020632
C        14.38667155241065    3.37808591184483   -3.59027628343309
C        15.34506693287559    4.32645149897097   -3.91646025314336
C        16.06598539799091    4.95977241600515   -2.91923937039915
C        15.84797683874139    4.64576752163614   -1.58772684664870
H        14.22578012315520   -1.01629278175375    0.43405124909444
H        13.28176315346630   -2.45290697544183    0.85777665833021
H        13.32072699274075   -1.06211402487899    1.95113718677022
H        11.23953031656346   -0.72108531857999   -1.78374872562103
H        12.04490269406422   -2.24778444463535   -1.39027133679970
H        13.00507490718588   -0.80605595122505   -1.75483605801791
H        10.78656929429154   -0.93057388081407    1.91424007514733
H        10.70977874578493   -2.31896504708204    0.81996575124093
H         9.93769695137811   -0.78891031569717    0.37273431924560
H        11.01197767369543    2.28630555607472   -1.56683842166592
H        10.37158036023865    2.33248552231057   -3.96970221777929
H         8.34969542524480    3.55126781641775   -4.68106733171717
H         6.95937822118677    4.72038991617002   -3.01887797957367
H         7.58034246631375    4.67930657593373   -0.63219864335077
H         7.88853879953153    1.44096683564572   -0.29518357602033
H         6.69776700704756   -0.41031450254380    0.81773779123539
H         7.10808548545741   -0.89203278415408    3.19910539676136
H         8.71356470942848    0.47757575893068    4.47940184594342
H         9.91200255074861    2.33378204553570    3.36425500373452
H        11.07062344114398    5.88340982280338    1.53714994645356
H        10.16502695700983    7.86245967987894    2.70995703332502
H         7.80528879590196    7.89534971446140    3.43326262600136
H         6.35670515438280    5.94777888697808    3.00626093560500
H         7.25959785662913    3.96091610220631    1.86221830951326
H        17.13516997814297    4.11137778367547    1.16438858069244
H        17.88128950521436    5.73865990003621    2.86435644285167
H        16.23256344859930    6.85588459714471    4.31259493036108
H        13.83251326138411    6.33471030376464    4.09143464449710
H        13.06298957128490    4.70804208139768    2.37611941295234
H        16.18384902771874    1.45491915365194   -1.25645839258712
H        17.54425987926743   -0.51520530089598   -0.66944820213865
H        17.59149735395588   -1.34047811853164    1.65291992379115
H        16.26156952487734   -0.20522053107527    3.39456356726300
H        14.88079683473496    1.75841241311434    2.80640565377481
H        13.39524409562239    2.34203509920103   -1.98037351683640
H        13.81270128456088    2.89804555229709   -4.36949146779717
H        15.51773478819533    4.58283450898093   -4.95134709026320
H        16.79734111123029    5.71173089501865   -3.17741576101944
H        16.39543719047005    5.16033511650617   -0.81186065600014

