40
CSD_code = WILCAY | q = 0 | S = 0 | Stoichiometry = C16H18Cl3IrN2 | MND = 7
Ir        5.31776824342104    2.22758244937167   10.12515844088780
Cl        5.31912783521207   -0.06779568300970   10.12835934477333
Cl        7.58579514774658    2.21350128950755    9.44166597726817
N         4.68623016111742    2.22183332703604    8.15222019415810
C         5.32033032758552    4.43119922036251    9.44720378683270
H         6.25287463724015    4.56035034770931    8.90512356468828
C         4.06769209297907    4.51311345657982    8.61127607884940
H         3.19747324234206    4.39472806879801    9.26937594741035
C         4.09077978716574    3.32851278256292    7.67775673476709
C         3.55318360951448    3.36426925026361    6.40025616537439
H         3.06367311250652    4.25762307361646    6.04999762889927
C         3.65107218197147    2.25364722536719    5.57983605184437
H         3.23304449907824    2.26821519059945    4.58498308412462
C         4.31036693396604    1.13773163576167    6.06241515286073
H         4.43855248056473    0.25334910082550    5.46028658519888
C         4.80869744581008    1.16459258054493    7.35211691159643
H         5.32057974047268    0.30291282777067    7.75497686009883
C         3.99351510325973    5.86656122536292    7.90404228146988
H         4.13222140228104    6.66020191383847    8.63440382938618
H         3.02501899914444    6.01103814078867    7.43360766927008
H         4.77265726423146    5.95089450151894    7.14976228525435
N         5.95125490312950    2.22169637418121   12.09752434690732
C         5.31679993105377    4.43120046719361   10.80293558146453
H         4.38425566968158    4.56037713603875   11.34501624591154
C         6.56943021895296    4.51315114591309   11.63886155702817
H         7.43969448508089    4.39488967328504   10.98080213991179
C         6.54640839255707    3.32844212203470   12.57223036012580
C         7.08381773648725    3.36417378620152   13.84981729278506
H         7.57329610357682    4.25750735106879   14.20016970321712
C         6.98583820679357    2.25351296353268   14.67016571884349
H         7.40381012852749    2.26804181439341   15.66505084042931
C         6.32659585803856    1.13761146297030   14.18744454486971
H         6.19831781759954    0.25324855870803   14.78959112193137
C         5.82862614936718    1.16443110764613   12.89756118014446
H         5.31676398094251    0.30282028208614   12.49448537088098
C         6.64348832713693    5.86655525606202   12.34619625321821
H         6.50474132660867    6.66022234085304   11.61587266948792
H         7.61196222879343    6.01107804901198   12.81666068601577
H         5.86432248864502    5.95079662388062   13.10046381941799
Cl        3.05042179941704    2.21348155976228   10.80882599239615

