47
CSD_code = WILDAZ | q = 0 | S = 0 | Stoichiometry = C23H17FN2O3Ti | MND = 12
Ti        3.40405582468187    6.60125975274600    4.92778428415022
F         1.15703720358585   -3.29812774366858   -3.09975969786773
O         3.45178280970635    4.90986810755425    5.41560568786243
O         4.27828011594851    2.89734002340513    5.00345434421504
O         2.45800863767657    6.25004864022674    3.44924348211517
N         2.01243363421940    1.45480813288347    0.79271053977963
N         1.35455975785685    1.40563410018665   -0.29812620604595
C         3.61905353936108    3.85330044336951    4.65731970985432
C         2.89947613000468    3.89744481423419    3.34619345321989
C         2.34849858960237    5.09908907691204    2.83198080560323
C         1.66195761235694    5.04404173615122    1.59912532123162
H         1.24609823932574    5.96769114609079    1.21989265993832
C         1.52971326920497    3.86880990045577    0.91062461385123
H         1.00634209492757    3.82833343923572   -0.03268634649223
C         2.08145600939930    2.67546626578156    1.41851313816703
C         2.75992655264557    2.71397393667315    2.63737044155885
H         3.19022666971638    1.81024208578807    3.04227945404098
C         1.33336053372979    0.18603433148856   -0.94274271290338
C         0.43374445218491    0.06098231556284   -2.00744225267901
H        -0.21066374490138    0.89347764458431   -2.24235556919193
C         0.36659528458966   -1.11145529652181   -2.73008723314876
H        -0.32362755120446   -1.23076233437289   -3.55038527974702
C         1.21394330440738   -2.15331044743881   -2.38942198671762
C         2.12239481120936   -2.05593044235067   -1.34657200732378
H         2.76599142728455   -2.89182727207888   -1.12011284121430
C         2.17928690349235   -0.88585108359109   -0.62247881628421
H         2.87374862617576   -0.76601081487010    0.19450238560258
C         1.21748419728849    7.50337272271532    5.40100117981956
H         0.38089896626763    7.50956032735987    4.71368240299714
C         1.48334518204329    6.51546202314494    6.36664594094528
H         0.89103516424771    5.62781111758325    6.54922669474372
C         2.59707048393977    6.93787454690401    7.13031114065676
H         2.97996055871140    6.44056347915702    8.01300284616111
C         3.00747560791764    8.19053153681576    6.63826971118221
H         3.73419438422757    8.84226579577629    7.10447066434466
C         2.17636622631137    8.52763476816265    5.54531919140867
H         2.16305542499872    9.47718035753593    5.02431096144403
C         5.60573317611997    7.31356042294587    5.44431373971688
H         6.00307952166658    7.51497048437303    6.43152235069924
C         5.05335251774420    8.26987380705145    4.55782306199221
H         4.96003645558816    9.33129470069930    4.74824646268106
C         4.83084963589076    7.63937416312300    3.32090576868502
H         4.50214092515075    8.12253482857924    2.40818177438328
C         5.27104537156449    6.29810531116574    3.43083429144663
H         5.31821222344679    5.57892007186387    2.62249977687417
C         5.76236487100049    6.10604980201293    4.73542225694814
H         6.23761836871248    5.20668927457628    5.10728041129629

