50
CSD_code = WILDIH | q = 0 | S = 0 | Stoichiometry = C24H20N2O3Ti | MND = 12
Ti        4.74630799861449    6.82650419254338   19.44989900718102
O         4.60219731866547    5.14108834354617   19.93891419196572
O         3.58236366267435    3.21626100176888   19.54313582506187
O         5.60632152239590    6.42131046528903   17.94082297836735
N         5.53329252682510    1.64131936373789   15.21570369869353
N         6.24599244438437    1.51000565753611   14.16661135009638
C         4.31054044738601    4.11386174691363   19.17716130869851
C         4.97478381297319    4.11219895559739   17.83771645194397
C         5.59970050700953    5.27010850898514   17.30960748906735
C         6.22695213901016    5.17341589951589   16.04967393856464
H         6.69709097803146    6.06498530285135   15.65710450634934
C         6.23909091892997    3.99638648321884   15.35000388907788
H         6.71646987042560    3.92447439811733   14.38432409751009
C         5.61292188831376    2.84681795028566   15.87048270081963
C         4.98393551133929    2.92957541283430   17.11302073833222
H         4.49709112531894    2.06016068676992   17.52871585037537
C         6.11830559124069    0.31645167633850   13.48763632726397
C         6.92849294682126    0.15504676245792   12.35952765798297
H         7.60609182576644    0.95090546316373   12.09072100010706
C         6.85689513105262   -1.00198708918158   11.61253982192634
H         7.48719394107947   -1.11746422872727   10.74202180370890
C         5.98250970943652   -2.02523351263385   11.96394589847170
C         5.17728180303479   -1.86223807690511   13.09144412264452
H         4.49685419665462   -2.65465996042114   13.37111808898202
C         5.23711410838748   -0.71412113861109   13.84624292556587
H         4.61694262979691   -0.58044196993653   14.71939530645255
C         5.88574691514761   -3.27530096768781   11.14679677286218
H         4.94299719117678   -3.29029160495238   10.59907478477521
H         5.90946971613598   -4.15526536892667   11.78731127952366
H         6.69995707055776   -3.33874441366363   10.42936774814127
C         3.32724960954414    7.97114095907147   17.90957905484259
H         3.65168760071339    8.43486692818380   16.98528863619573
C         2.80105046469445    6.66285097382832   18.03478719109103
H         2.67171565892588    5.95233046369431   17.22774567625343
C         2.35033766343958    6.49915959895939   19.35813638070495
H         1.83044818279940    5.63235739992680   19.74709632334529
C         2.61666812098401    7.68994968101534   20.06157524180434
H         2.27564183833260    7.91386957021577   21.06485480919421
C         3.19810992435427    8.60965882164561   19.15578361117224
H         3.37258117393573    9.66115749973121   19.34435967599150
C         5.65768484118901    7.09920404365673   21.62569203000406
H         5.27515680070164    6.62488923063960   22.52111436127224
C         5.31543260714450    8.37850949267253   21.15191575713906
H         4.65240463485104    9.07620440821262   21.64576522402547
C         6.12489218208322    8.66257388894318   20.02801927061806
H         6.18257096272483    9.61105011845211   19.50791833116326
C         7.00618555968215    7.57656221400116   19.84612793099964
H         7.81386566766362    7.52802001992338   19.12662871848709
C         6.70999026216109    6.60492365514887   20.81918166870030
H         7.24642079549022    5.67789109226254   20.97728854647330

