46
CSD_code = WILDED | q = 0 | S = 0 | Stoichiometry = C22H17N3O3Ti | MND = 12
Ti        3.51642342998167    3.40060596585204    8.34936039649211
O         3.64244992955791    5.07521782373427    7.82087312690060
O         3.05070463668671    7.17145876702550    8.22176114669992
O         4.56083796018920    3.67418493668714    9.78320505029309
N         5.67298012009042    8.44445966960286   12.28219387059459
N         6.37277236604801    8.44552762730809   13.33792561929176
N         6.83390828022572   11.85760016999890   15.65660269857938
C         3.62313347053407    6.15862791236256    8.55890602239355
C         4.39653243527537    6.06347187057015    9.83709304599757
C         4.82963072070675    4.81773834620123   10.36065771063783
C         5.57481749193127    4.82136998839375   11.56102932756483
H         5.90032822102938    3.86518197383183   11.94749642662112
C         5.87049210389713    5.98875035780260   12.21031731621496
H         6.43868224812895    5.98876468648603   13.12856561348516
C         5.43593471507733    7.22494991661635   11.69191628473735
C         4.70391463548040    7.23906915567331   10.50432269683719
H         4.36176108386149    8.17765259479095   10.09446507871615
C         6.52564809455508    9.62379079850439   14.02205660997258
C         7.71334087719545    9.84017935033521   14.73237376682073
H         8.53112361352472    9.14326670245903   14.63951353737175
C         7.80948849193580   10.97213210712121   15.51719000526873
H         8.71174026058085   11.18430958546707   16.07637303812557
C         5.70687171804945   11.64700335125327   14.99452685898919
H         4.93870914863333   12.39687306393324   15.13521579912335
C         5.49419106932847   10.56228859596503   14.16638640021484
H         4.56055075739196   10.40969232864726   13.64765060060643
C         2.05536563666969    2.59235032604609   10.05692789657990
H         2.36796391128111    2.11842638568572   10.98005136273023
C         1.75700410722033    3.96706110230724    9.89612668233145
H         1.81763203619997    4.72277278685553   10.66951743646946
C         1.23770451743851    4.15212769394155    8.60104360952675
H         0.84570189097599    5.07985677373622    8.20256002587438
C         1.23700869041140    2.90377522753636    7.94765208199993
H         0.78013329687330    2.70139817559866    6.98669797245271
C         1.72048382710037    1.93438358249857    8.86052901516559
H         1.69488974375631    0.86150215519610    8.71919423739164
C         3.66461141769516    1.71823572568100    6.69427959139352
H         2.85541768436047    1.12108276936837    6.29575207057779
C         4.52027982954061    1.34604880423757    7.75617102286834
H         4.47286692829286    0.42151903672028    8.31864675588570
C         5.57927911062084    2.27747206219996    7.80287406230014
H         6.44939524461247    2.21703520339914    8.44443607022768
C         5.35432410445383    3.24648553980108    6.80853151431554
H         6.01684139609069    4.06425277814359    6.55484480374723
C         4.16266112807335    2.90586376400752    6.12610336624815
H         3.77966761845552    3.40208246041382    5.24278237336599

