89
CSD_code = WILFAB | q = 0 | S = 0 | Stoichiometry = C40H36N4O8Ti | MND = 12
Ti       -1.11775830016337    5.77851622807931   10.59475515645921
N         4.84255629444779    3.58541376572671    8.69102780859951
N         4.71707251447279    4.85472670125717    8.68250398632365
N         5.14817217614727    7.92852701678131   11.92745590001891
N         5.04885817981317    6.65788162740785   11.97273536390776
O         0.16510940622977    4.54510608995764   10.18721931851457
O        -1.02008596486177    2.72694214552718    9.83015813771367
O         0.23433292278808    0.55994410965190    9.04016508191108
H        -0.51178520244741    1.13385765442023    9.34281679222499
O         0.32262445514160    6.88768236971782   10.91436983393111
O        -0.80917731098839    8.72940925756826   11.30663850424021
O         0.50515160912510   10.91618924872118   11.86383928670174
H        -0.26478457815113   10.32683243639834   11.66460997817291
O         9.59939413564429    3.56842521017613   11.66276794311958
O         9.18217770774178    8.05039319333204    9.06163840914277
C         0.06688893213908    3.32403947450725    9.80408403451508
C         1.31255932003789    2.68564907750457    9.32699999731545
C         1.32884466802066    1.32270942137621    8.96842042969579
C         2.53398025229493    0.75653951892071    8.53480511373791
H         2.53656288595972   -0.28976840537086    8.27231480041467
C         3.67598428142173    1.51563055714575    8.44579064316055
H         4.60151647414255    1.07761241132894    8.10483692153573
C         3.65797840681168    2.88211887611109    8.76697769864195
C         2.46597145062085    3.44892389855274    9.21659412684888
H         2.44581142537446    4.49496976921660    9.49249489376950
C         5.86094210369932    5.60881499343536    8.70933971126781
C         5.67906060578449    6.98764338519776    8.84928762182253
H         4.67222436431712    7.37329054768650    8.89463889222203
C         6.75810454188794    7.83569334978328    8.96754939272653
H         6.58292668812346    8.89080361607779    9.10406792164192
C         8.05341698153214    7.32030706050962    8.92703914305266
C         8.24226502051202    5.94402278171082    8.73281748718445
H         9.25491727245520    5.57432044169793    8.68614497612027
C         7.16868242911332    5.10012860111973    8.63359233411654
H         7.29999266004859    4.03754163232985    8.49919214982265
C         9.08178485989916    9.43482840747166    9.34087908666744
H         8.48213475920561    9.59076937612411   10.24752979140112
H         8.59474554153559    9.95331771315160    8.50360533481443
C        10.49154792338415    9.96821112551351    9.54101104671667
H        10.97135119519419    9.44829819808233   10.36558197275101
H        10.45686906540013   11.03138273305976    9.76068650569115
H        11.08036512231652    9.80831813291001    8.64201978682730
C         0.27399722702534    8.12282497801875   11.25327630593979
C         1.56068065808374    8.77763806197829   11.57654415527079
C         1.60414743356992   10.15779942978906   11.86393297921965
C         2.84185678668717   10.74780504958917   12.14754114050394
H         2.86248849015109   11.80604894285748   12.35573396644421
C         3.99106413071770    9.99545713334889   12.16288106293739
H         4.94285079030032   10.45064141803286   12.39032405302156
C         3.95104730155021    8.61462597957451   11.91257219394077
C         2.72494536346150    8.02294466455042   11.60871182529339
H         2.68575207429160    6.96492382507490   11.38833925063902
C         6.21097382500523    5.93142560454871   11.93185203269605
C         7.50421386554284    6.47169619102910   12.02620554250018
H         7.60767316384416    7.53656585565495   12.16734228124169
C         8.60092117894652    5.65434185388514   11.95069142787912
H         9.60233841579580    6.05029963983539   12.01839265090766
C         8.45023530588609    4.27344254569297   11.76102865059891
C         7.16834438898725    3.72803477093405   11.68947449806004
H         7.02168832239723    2.66853008095298   11.55239207674737
C         6.06628995068192    4.54886163347884   11.78610013720130
H         5.07086027219709    4.13769816138143   11.72103797020860
C         9.53921705279743    2.17305561156468   11.43115919431174
H         8.98313711722168    1.97036645077839   10.50599148804330
H         9.02718820854754    1.67506435910579   12.26586080991559
C        10.96666626545807    1.66343219392709   11.31068696186431
H        11.46957551864609    2.15926897743102   10.48506078736538
H        10.96263028339182    0.59162208988949   11.13470171576213
H        11.51419211975651    1.87324853440308   12.22535777970144
C        -1.84596676905580    6.44964253704466   12.80073293225708
H        -1.83684141626127    7.45036368981433   13.21019724244958
C        -0.84263567377727    5.47123733779862   12.97997450473586
H         0.08250652184065    5.59983272539186   13.52910290878178
C        -1.31517384631302    4.26055177239792   12.43246498427383
H        -0.82484140018966    3.29857477501103   12.50600238079898
C        -2.58987290600428    4.49604521968097   11.87846839119635
H        -3.24850676512924    3.73212705233277   11.48501258243201
C        -2.92356591519284    5.85138379049416   12.12418862942795
H        -3.89345107652502    6.30619140294435   11.96795136624091
C        -2.07527761959689    5.14041831337409    8.46573363923785
H        -2.19923055847275    4.13383704013117    8.09046298397377
C        -3.03451664645111    5.86734265081366    9.19459137551697
H        -4.03418712499022    5.52397926284146    9.42834588675419
C        -2.54374976823282    7.18210455252394    9.37805623388526
H        -3.08867935918377    8.01944735657572    9.79469186008614
C        -1.28984020806105    7.26590986418342    8.73743922596255
H        -0.70713632128881    8.16773925066853    8.59954779791129
C        -0.99154962542481    6.00170010933417    8.18752661050840
H        -0.12634630881175    5.76384350951864    7.58021220992486

