26
CSD_code = WILFOP | q = 0 | S = 0 | Stoichiometry = C11H7BrN3O3Re | MND = 6
Re        1.91842392752180    9.14480031500136    8.08801968228980
Br        1.36634764255690   10.96563472410969    6.36230900961587
N         3.04844817186556    8.30748970166476    6.47841544043105
N         3.87273292073858   10.16063107244681    8.17329938307400
O        -0.72172886198110    7.70988988027456    7.35355930053155
O         0.56114760637954   10.93406061719786   10.21353359056047
N         2.81901219948018    7.44455553416279    5.49961416298579
H         1.94734437455759    6.93557285458606    5.45406351086980
O         2.84523504735180    7.00088532962258   10.10807522688668
C         4.71410862571534    9.87293795314520    7.16139849499987
C         4.24560216878036    8.85107594815761    6.24706351090280
C         0.24468923912467    8.23193714751554    7.68293916812648
C         2.49656618331354    7.79426976550790    9.35588907453406
C         1.04631796603004   10.22198779984382    9.46068903888305
C         5.92744162828272   10.53568796767862    6.99709102966133
H         6.56762300593137   10.27694864691388    6.16942910390858
C         4.79018535712998    8.29908172407802    5.07177630422818
H         5.73070920586321    8.52935443208810    4.61802412597171
C         5.40745016054246   11.81742045283676    8.93476644477242
H         5.63672052857541   12.58392912569767    9.65685673172077
C         6.27902014754124   11.52435850426094    7.89513930553783
H         7.20962737121730   12.05954221798865    7.78632890304794
C         4.22243614590834   11.11143558193808    9.03357961212319
H         3.52256086359477   11.31979054262434    9.83259464139345
C         3.84473171991010    7.40957421569516    4.62552922536732
H         3.83424665406883    6.77434794496362    3.76371597757735

