67
CSD_code = WILGIJ | q = 0 | S = 0 | Stoichiometry = C25H36IrN3O2 | MND = 6
Ir        6.35390943080790    1.08446739210950    8.17734827383207
O         4.52610826703374    0.44169177297518    6.79170995964073
O         5.27186206673775    2.50209153676330    6.54685345656819
N         3.86881267998530    1.14625246188984    9.90552221788657
N         4.66834398807761    3.12671185047981    9.63514669393980
N         3.52401711231677    1.78255685620300    5.28447016386527
C         4.91649553556555    1.82254728560653    9.38311380297033
C         2.97712497942160    2.01895791774927   10.46887754136918
C         3.48008514020396    3.26251202517411   10.29942217168980
C         3.70204690972476   -0.29314141583627    9.86800590143703
C         3.57535478004072   -0.84591166943144   11.28582087401164
C         2.50801588684275   -0.66107680404012    8.99215311920656
C         5.53295210288393    4.22814886588553    9.26218060238467
C         6.00052049157501    4.97188565778476   10.51147696673713
C         4.82181020943638    5.14468124088972    8.27197404238891
C         4.48235058209273    1.57604403480421    6.25645058598831
C         3.12855671494199    3.11407974749507    4.90709498578960
C         2.03711737432837    3.70688062567303    5.76937843892640
C         1.86784962119611    3.30316739668913    7.08709106748555
C         0.87982331672166    3.86656028201128    7.87504262372558
C         0.04720706425370    4.84202513830257    7.35517842430727
C         0.20819437243933    5.25100822525977    6.04185632536786
C         1.19576159447008    4.68604334629280    5.25530944392549
C         7.36590432336620    0.11483972491803    9.72769338619918
C         7.96303235083779    1.39874440216063    9.48774663730885
C         9.31482524994219    1.54169061615618    8.80586519441104
C         9.17954866567997    1.69448032095166    7.27942562601299
C         7.95251663408649    1.01259666930678    6.71847695978897
C         7.58439696846595   -0.28502501485209    6.98818207748698
C         8.41564653785019   -1.22492012563620    7.83289266480094
C         8.00459796005024   -1.19664465823197    9.31587516105010
H         2.07035552989447    1.70145326520799   10.94039725393264
H         3.08249460154108    4.21119061608006   10.59400512475949
H         4.60836615879513   -0.68375013562894    9.39523205558382
H         2.64660707476319   -0.52420191973932   11.75171742171688
H         4.40777062248415   -0.50888008405687   11.89937739210600
H         3.58444230609047   -1.93163924471412   11.25779827281445
H         2.71017962381555   -0.33341725070851    7.97575862977690
H         1.59294202352174   -0.19428377306869    9.35104253112163
H         2.37184381914086   -1.73870191199873    8.98702074428693
H         6.39045736906960    3.77290178431939    8.75741022917794
H         6.45625177002129    4.27950865306563   11.21579066253443
H         5.16946589327726    5.47223424576421   11.00362826096659
H         6.73738313497923    5.72141684238062   10.23772050924083
H         3.89968967793442    5.54519593129328    8.68763803868827
H         4.59138212811252    4.57533210717210    7.37640541141287
H         5.47212568159091    5.97182147276505    8.00226735947513
H         2.81314940151098    3.11190355731344    3.85803770097631
H         4.02907879139328    3.73344486868909    4.99547981129455
H         2.51535888923232    2.54429355796272    7.50049619686275
H         0.76195832104443    3.54066735079126    8.89872726671724
H        -0.72587918153061    5.28093671435761    7.96919175425480
H        -0.44037790640619    6.01011115400218    5.62874125813669
H         1.31762762965015    5.00704165062875    4.23024037700377
H         9.82622792334979    2.42179277324178    9.20117972881648
H         9.93417388663993    0.67693103489647    9.05027726963308
H         9.10846198766707    2.75629884337633    7.03704322065255
H        10.07426141182516    1.30660435150677    6.77937012489261
H         8.30129817236064   -2.24142027963978    7.45119021174939
H         9.46854811090800   -0.95780726468817    7.72737549015570
H         7.27628354593645   -1.98983837089523    9.49732236211351
H         8.87148927337839   -1.40414162591493    9.95385086550904
H         2.81845667941756    1.06318709055835    5.22978012712609
H         6.82700254751190    0.01553271879510   10.67223445245485
H         7.80106327469430    2.14265460977699   10.26761675213768
H         7.55579907246598    1.48541936373194    5.82372633218761
H         6.88497184255092   -0.76893840212954    6.31287340922084

