47
CSD_code = WILHOR | q = 0 | S = 0 | Stoichiometry = C14H16N10O6Zn | MND = 4
Zn        3.04498492865181    8.60138468527560    3.38618341351719
O         2.85012474544430    6.64341125629195    3.63478155273307
C         3.05538050034722   10.49487983615493    5.29625390793133
O         3.64938558885114    9.43955362494397    4.93724326101423
O         1.90667563334242   10.81922978528412    5.00997740659566
N         3.72864793184286   12.70048787129516    3.31738604881967
C         3.08326565879769   15.42317756010045    3.46958553190642
O         4.42020077647454    7.50246252853291    2.40677405026718
N         3.66487517789171    4.08561515241165    3.25836555146009
N         4.38658068274612    1.38765568188859    6.12638845075205
N         1.90551030468981    2.81190053425736    3.78837740276065
O         1.09460148759561    9.15273241087404    3.17871339053440
H         1.12989955862061    9.81290286244488    3.92606671719370
H         0.84580112820222    9.64949757209922    2.39249478684599
N         3.63355482812420   12.81174053660816    5.76730042679600
N         2.78117487473800   16.72805982159632    3.47177834675557
H         2.66520671016105   17.20632097369772    2.59675370779736
H         2.60547733502314   17.18854590361140    4.34619187854680
N         5.29496517218183    3.14376510865960    4.79942635482708
N         3.10537262219248   14.97530758131498    5.97584983939936
C         3.55017534442955   13.30680134167526    4.50063257466328
N         3.26953915299616   14.80434897771594    2.29739840896278
C         2.97804214280820    2.43985275018208    4.56115581171477
N         2.21952295811630    0.61282263475054    5.95050860072314
H         2.39686828215974    0.02310479874230    6.74378061128481
H         1.28277547692071    0.75671308778199    5.61944112962688
C         3.91528160308177   11.45690974877456    6.14551580721121
H         3.67161230534376   11.32285372897712    7.20163025591950
H         4.96928341636384   11.21271559356585    5.98173863913383
C         3.22456716697710   14.66813778424848    4.64638102160144
C         4.44302928123747    5.12558917672848    2.65987386604554
H         4.51629886277018    4.99445928393958    1.57426046881211
H         5.44912321981515    5.07748181431701    3.08751166640841
C         4.08738987356846    3.24060698088018    4.24192244143576
C         2.34778797158050    3.78112490353047    3.04902306200607
H         1.75242694432291    4.30857900588844    2.33041223664921
C         3.17933510527187    1.47357856439701    5.56132589410342
C         3.86528853910817    6.50951172916715    2.92734853128947
C         5.34811215465465    2.20304129621525    5.72293526567696
H         6.30258529669893    2.07851135339766    6.21710805368686
C         3.34478900474029   13.86050911184794    6.59362795008142
H         3.32928356045073   13.75110949068190    7.66042229944339
O         3.55486674716079   10.27144984280715    2.20847013999805
H         4.40375489810715   10.08747474808769    1.79462327179105
H         3.65999645758837   11.14091234036522    2.69472733714156
C         3.56744031902171   13.52233571955842    2.28851921116427
H         3.69653826876670   13.08313290451690    1.30781341697958

