37
CSD_code = WILKAD | q = 1 | S = 0 | Stoichiometry = C18H14MnO4(1+) | MND = 9
Mn        1.74776120729751   10.94527579427992    2.32090160268270
O         2.73227175268486   13.41929282990879    6.43814191006638
O         4.09675531909634   10.65830158226293    0.56525654996060
O         0.21351437358435    8.93974098236157    0.80311463633681
O         0.65664366787624   13.20097058486718    0.77491505921243
C         2.88831285237280   11.97421759219408    4.12677482116154
C         3.17043291415086   10.59814539546263    4.12140597325778
C         2.12743629455784    9.66079844575281    4.17541077487362
C         0.79466132341616   10.11126727209946    4.23737671591940
C         0.51376731339595   11.48454400102824    4.25516762210427
C         1.55608430799078   12.44024735786039    4.22964272752951
C         1.31434069989420   13.86921523589896    4.55418702697249
C         1.90401034162831   14.14727155792836    5.96960299367934
C         1.34468619277411   15.37824300019755    6.62240665743781
C         2.34760835667618   15.98757051022481    7.57155938705097
C         3.07470956239906   17.10672619347378    7.19087676608841
C         4.01043789569205   17.65481991666502    8.05079254721129
C         4.23304614419293   17.08090177793972    9.29091000821585
C         3.51526417993402   15.95939129692752    9.67120215282501
C         2.57574794443052   15.41372497638453    8.81484801156034
C         3.17155347407011   10.77201667861241    1.21242132569965
C         0.81247270545062    9.72918976678607    1.35618687089141
C         1.08533133618979   12.30801835683565    1.33266725867779
H         3.70378204771981   12.68620770695553    4.17002030686997
H         4.20122039053189   10.26433935374827    4.16513164889560
H         2.34852404047767    8.60424972160516    4.27614796410779
H        -0.01194125865935    9.39812959819701    4.37096697076213
H        -0.50763974693372   11.81773248983108    4.40647069978077
H         0.25636200758990   14.13055232408449    4.53120766173584
H         1.85559247440246   14.53933491364809    3.88087889350484
H         0.45606486946163   15.06216160351095    7.17944693384269
H         1.02906314651876   16.09804449054511    5.86553503769313
H         2.90367165597321   17.55905466309805    6.22390893070603
H         4.56612364065080   18.52979780208505    7.75013859255677
H         4.96380874065940   17.50773776448987    9.96026430277554
H         3.68464587940055   15.50975865296282   10.63749788024663
H         2.01677195244989   14.53920780928535    9.11411477710408

