52
CSD_code = WILLEL | q = 1 | S = 0 | Stoichiometry = C25H23FeO3(1+) | MND = 8
Fe        1.66565503395518    1.47773666917128   11.72063593245737
O        -0.24360747180474    0.61125162163337    9.69630945332204
O         0.35148138119304   -0.13153818867958   13.75908244425037
O         3.60439083782952   -0.63195159935233   11.18378360546540
C         0.51166809555322    0.95645789713075   10.46736273678337
C         0.86260441512717    0.49501409882439   12.96598757036499
C         2.85450144677458    0.19754325511751   11.36071570614285
C         2.59933067152223    3.29591870568632   10.86555673700511
C         1.26652889514888    3.64813643533696   11.27773741731189
C         1.16269179190674    3.42579228993441   12.68532730355579
C         2.44694565767788    2.97546792644583   13.15815471494691
C         3.34309547240092    2.92938385527048   12.04244064689706
C         3.14460895927404    3.58193983326893    9.49284163779225
H         2.29156574238403    3.60397247689600    8.80166860506091
C         0.24715009844592    4.33285540663763   10.43465516061470
H        -0.75323887230103    4.21388300870349   10.84126011368263
H         0.25170064820577    3.96966122506367    9.41010222028714
H         0.47884955750340    5.39958179205285   10.40799724261511
C         0.02208203930068    3.84818139429202   13.54859093144411
H        -0.01236054431907    3.27956169418072   14.47374031136639
H        -0.93000164073348    3.73413488124441   13.03739324147925
H         0.14141954526632    4.90221454933872   13.80538741803409
C         2.84313555809198    2.86314691205113   14.59248604428579
H         3.62533930104643    2.12252135867252   14.73581616023016
H         1.99743830939208    2.59688611837244   15.22042764467337
H         3.22583171384706    3.82657910114946   14.93387933402457
C         4.81582029960142    2.73544372548794   12.14779947262424
H         5.21464610473243    2.19841986291433   11.29195992346941
H         5.08007893158007    2.20319176165675   13.05736952494059
H         5.29730593365858    3.71466139771741   12.17551660586055
C         3.79443288780548    4.95526487257360    9.41230264932858
C         3.93987423637697    5.79348198285707   10.50756756024753
H         3.58761718395421    5.49232813123732   11.48399403977415
C         4.52928439367491    7.03953048378991   10.36252609549703
H         4.63659878364107    7.68106003396895   11.22416734661932
C         4.97533240645360    7.46138644429684    9.12362157046909
H         5.43523525100652    8.43091401154899    9.01411021656635
C         4.82157791860809    6.63406121754088    8.02287829256525
H         5.15888489024674    6.95720160596803    7.05032890731654
C         4.23174160358371    5.39254695186502    8.16589450812586
H         4.11251100192748    4.74970631430547    7.30593704587202
C         4.05502831791338    2.46796263004634    9.00040998996592
C         5.43587471114702    2.59915334264408    8.93401307479085
H         5.90508136073973    3.52533276587215    9.23101837648522
C         6.21552410641614    1.55078400954065    8.47343285936076
H         7.28719430949067    1.66676494140901    8.42408155774644
C         5.62670291951953    0.36368046948228    8.07305513236489
H         6.23613103139694   -0.44864127204688    7.70988992636444
C         4.24965054877270    0.22857157934166    8.12745874315956
H         3.78005969634166   -0.68688379095775    7.80184552527897
C         3.47138679851984    1.27555369272660    8.58817965905262
H         2.39281773020273    1.17429011576954    8.60570106206158

