56
CSD_code = WILMOU | q = 1 | S = 0 | Stoichiometry = C26H21N8Ru(1+) | MND = 6
Ru        1.77677846836843   -2.61927363477902   -9.24284085496693
N         5.57524478813962   -2.05006996613482  -10.70606674551093
H         6.21677395678538   -1.34320661435076  -11.02684636144577
N         3.74157316228200   -2.95818518782299   -9.89998046328621
N         2.27539857740315   -2.13644556998017   -7.38220052079772
N         2.33120962189592   -0.68649475137951   -9.67106462377711
N         1.41884482880257   -4.55582066411808   -9.00538243144565
N         1.26715193795614   -3.08851233604354  -11.10744879764155
N         0.01687769308501   -2.02436932270277   -8.58426403013496
N         3.99939583173503    0.66230345258219  -10.35570130100482
C         3.48208730346987   -2.27135301865708   -6.83091307687298
H         4.20480969401423   -2.84928960826763   -7.39405942232028
C         3.61551646973875   -0.58925196851449  -10.11730849409858
C         4.33005770907393   -1.81187322830427  -10.25248352077058
C         0.99467984327206   -2.65256595813739  -13.43719529227130
H         0.94411599693812   -1.92490952680720  -14.23035704863820
C         1.88902568434762    0.58672835731815   -9.62422641034418
H         0.89350814359864    0.84242657687720   -9.30948997107676
C         5.78813209269738   -3.40011180782136  -10.64304747218496
H         6.70764189250176   -3.85316573786159  -10.94820437171524
C         1.13430016825548   -4.41435211833176  -11.34967723852318
C         2.92382826447839    1.40579092726419  -10.04988382597192
H         2.94120988196434    2.47236063620048  -10.14739061361833
C         0.03513025721019   -1.39920644214641   -7.38150481946195
C         4.64497737655718   -3.95009706024821  -10.14498031806397
H         4.42385260497458   -4.98141977562652   -9.94683114925017
C         1.18953495952406   -2.23961920981171  -12.13297100612365
H         1.28932966897452   -1.18816518634137  -11.89352051399320
C        -1.10828518534640   -0.79797325680174   -6.85681504154432
H        -1.06875348363537   -0.29914848337142   -5.90294609464885
C         1.19930601446583   -5.24677774381804  -10.15051596433617
C         1.32850642366169   -1.44439213769906   -6.70501658875643
C        -2.29144673045195   -0.84039559398402   -7.56894982408346
H        -3.18331590467886   -0.37409808510320   -7.18281633793924
C        -1.13619503673364   -2.07185249505107   -9.25562562752425
H        -1.11954948748159   -2.58752285843877  -10.20902264474215
C         1.45307794978448   -5.23111978331538   -7.85444967876987
H         1.62252482444796   -4.64605843513151   -6.95799527921503
C         1.02907899983294   -6.63080308964632  -10.14307534761664
H         0.85958335492162   -7.16168827289601  -11.06506539632222
C         1.60076979021905   -0.85839757640631   -5.47002352556415
H         0.83902613715163   -0.29940058802062   -4.95251800879305
C         1.28933902756253   -6.59967666781540   -7.77557003689754
H         1.32851781308276   -7.09364426683338   -6.81858110025704
C         1.07846354320882   -7.31952832016861   -8.94616821350053
H         0.95272820539859   -8.38984292640557   -8.92167046388069
C        -2.30446261448607   -1.50036456946954   -8.79236446701109
H        -3.20584219121550   -1.56509261977660   -9.37930937164913
C         3.81872159071097   -1.71869219410277   -5.61028182037227
H         4.81181233928679   -1.85170156549898   -5.21335269884760
C         0.87127099508688   -4.01147279050884  -13.69996024991968
H         0.72471821469589   -4.36835893145835  -14.70657840890707
C         0.93770302328700   -4.89897967085099  -12.64205806075616
H         0.84379828852885   -5.95758623578967  -12.81845570041679
C         2.86116587603919   -0.98841929358078   -4.91719700009118
H         3.09365134461021   -0.53346280411137   -3.96797635233460

