38
CSD_code = WILPAI | q = 0 | S = 0 | Stoichiometry = C17H18Br2Ti | MND = 12
Br        4.28945720106295   18.28885371926188    1.24655661274949
Ti        5.03544858507691   20.03111738012036    2.79871916844338
C         6.43404573392003   21.90963279425071    2.76439991613841
C         5.98571166854456   23.07367857732165    3.61346023313153
C         5.03550385980971   23.96416005368642    2.79865407863673
C         5.18093353306976   22.49114472899194    4.79044517661756
C         7.32647481476643   20.87263701101547    3.11742065309992
C         7.35766993687123   19.95478100470831    2.03678751428818
C         6.51979036645702   20.43348111086459    1.00899517773580
C         5.92101673671990   21.62674127851517    1.46606478319177
C         8.20001741795394   20.81044694472218    4.33183043738678
H         4.47069928148043   24.60769443318346    3.47619661847059
H         4.72018760197753   23.29050386354291    5.38152025560099
H         5.81512656845280   21.90119174541283    5.46089572034361
H         7.76919686058105   20.18298893010950    5.11501898487339
H         9.16446219498402   20.37847699852615    4.06747153617817
H         8.36267069339480   21.80808646702048    4.73762038672461
H         7.99654709593953   19.08138113486788    1.97660884866480
H         6.42310010882005   20.00804340000907    0.01734606012928
H         6.84119440678005   23.65492169396774    3.97622370986208
Br        5.78198869939198   18.28998099817801    4.35027748623188
C         3.63690772264105   21.90969066558515    2.83290998344189
C         2.74445554881222   20.87272274134633    2.47987921358958
C         2.71318187631617   19.95489863685154    3.56054013931261
C         3.55108564907372   20.43354802965701    4.58832838279357
C         4.14989911473099   21.62679432373723    4.13126055805853
C         4.08528044934298   23.07370909527433    1.98383670356246
H         5.60031099451385   24.60770100675764    2.12112031687470
C         4.89004711493294   22.49115308500841    0.80685798647104
C         1.87106059317281   20.81045707078117    1.26536534212090
H         2.07436583947860   19.08145227694756    3.62065617101527
H         3.64776293071367   20.00808969355580    5.57996799412333
H         3.22981116075810   23.65497709571614    1.62108205214530
H         5.35084871109620   23.29050020472365    0.21580824453989
H         4.25584419086116   21.90124694423461    0.13637891917312
H         2.30180496561833   20.18269242195106    0.48238098620898
H         0.90647779015049   20.37879003286060    1.52970794547806
H         1.70871198173223   21.80803240673494    0.85930570259185

