43
CSD_code = WILYIC | q = 0 | S = 0 | Stoichiometry = C15H19CoN2O6 | MND = 6
Co        3.32396433222759    6.97244947248733    3.22593380869951
O         2.54845457950103    8.30001725123886    4.33372272464169
O         4.16246553247039    8.30163766681661    2.16637785461633
O         0.82862702867512    6.97102835068627    2.70676221408248
O         2.11457204682691    6.97228777537135    0.98270627685800
N         1.91590214204127    6.97188541421672    2.17613725734699
N         5.04249312669148    6.97219645696879    4.50669557630944
C         1.67065929589658   10.35462790074896    5.10252131007513
H         0.80961440802870   10.77203590879369    4.58452033894262
H         2.26045119688415   11.17400756012506    5.50696661180487
H         1.32308898155576    9.71267524503754    5.90694902495827
C         2.49036338585940    9.54268006944347    4.12669033173382
C         3.13041431545293   10.21433227171295    3.08422132854788
H         3.00625770559948   11.28050431987275    2.99234601236766
C         3.94503882885111    9.54387466856920    2.17058986853077
C         4.64138825847112   10.35774294641298    1.10468307830544
H         5.31119604647049    9.71753158905058    0.53820218353612
H         5.19849983989555   11.17676637312949    1.55302389005587
H         3.89625264801081   10.77558264870057    0.43132601805818
C         6.26725595662535    6.97051443050729    3.99491512157309
H         6.32519205651349    6.97245491242045    2.91578540903008
C         7.40596799488613    6.96631616618592    4.78405484429653
H         8.38294730828255    6.96491203951723    4.32671548537680
C         7.26190921526980    6.96387230439029    6.16241155179741
H         8.12779432441834    6.96042714070088    6.80825848994442
C         5.98178857964691    6.96581697354176    6.69325863386428
H         5.82136470866962    6.96414634625029    7.75999067402269
C         4.90096383709681    6.96997717967623    5.82654026599397
H         3.88296823863677    6.97180706252110    6.18926298511500
O         2.54931718429945    5.64484089128756    4.33436386483504
O         4.16317885197693    5.64326015560193    2.16686321261489
C         1.67441616325960    3.58987895990185    5.10538374254496
H         0.80951775719510    3.17835197981636    4.58921168641189
H         2.26199803419779    2.76647971921908    5.50450999407945
H         1.33250478141544    4.23046143028365    5.91325769234662
C         2.49340509097067    4.40185083264113    4.12888126239988
C         3.13497223854619    3.72987821102899    3.08756682846885
H         3.01280416935654    2.66335367920091    2.99719386339216
C         3.94822350118163    4.40060271716741    2.17291282211521
C         4.64574439414351    3.58663038917183    1.10785730449783
H         5.31608777589244    4.22679854711946    0.54196256600173
H         5.20235816023394    2.76764227169458    1.55685351676038
H         3.90131597787498    3.16876177077072    0.43371247304552

