106
CSD_code = WIMGUX | q = 1 | S = 0 | Stoichiometry = C55H47ClIrP2(1+) | MND = 8
Ir        3.08010149336463    6.16814130159658    2.27876890379047
Cl        4.55468877394118    6.22894975499345    0.38836209320865
P         4.83484205880711    7.37964232578609    3.20645239103336
P         4.42196480125868    4.43200090636645    3.00954384797765
C         1.42162528440714    7.07965841323554    1.07389614195959
C         3.73421026388727    2.87177354974746    2.38197206461949
C         4.62988346821925    4.19273117895644    4.80287654712861
C         6.14837362468916    4.45757089031752    2.43128429839200
C         1.22954097181620    9.02480097666840    2.78179132960970
H         1.75769737339739    9.65677917991733    2.07245490978459
H         1.65457141004716    9.19831020266320    3.76855681125379
H         0.18260072902622    9.33250746880052    2.80461286296830
C         1.84411528367386    4.82199675291768   -1.15552174255507
H         2.69735872892758    5.48021194411457   -1.15373846316367
C         8.79057754940933    4.18931972454506    1.56673280370609
H         9.81230893799606    4.10589310743514    1.22846693692570
C         1.49605612072985    7.88525695802108   -0.17954481992454
H         1.17959690682084    8.90972261340714    0.00061041519820
H         0.85331593608742    7.43998607968071   -0.93772081388910
H         2.50910700340935    7.90682112009736   -0.58104698071799
C         0.49224725347222    3.96236930640052    2.97809365888295
H        -0.59769872262927    3.96856730272094    3.03903834501240
H         0.86541071749256    3.75655791965333    3.97865263403157
H         0.79823868647165    3.15349500571382    2.31873255049318
C         6.49987091935540    6.95899352889787    2.59380366751690
C         5.08282863770131    7.35192926524104    5.01249102897516
C         4.59617077011280    9.53658314373465    1.49480230052310
H         4.76606286676139    8.80043919149088    0.72267428344710
C         8.67739374639851    7.85097435515217    1.99685749251949
H         9.31778961232040    8.71151057025186    1.88196687899802
C         0.99123576891940    4.78373464820545   -0.05182491406491
C         6.94226825743691    5.63428896895236    2.31596451515394
C         1.30985244045634    7.58460429519881    2.39191091222006
C         6.33993281548443    7.47387417566829    5.59443573760643
H         7.22180647598730    7.55546624068629    4.97656389685332
C         4.62141171653394    9.14415407541929    2.83324670495007
C         1.63762316195225    3.99152500662163   -2.23714583273933
H         2.33068212258279    4.01804352940071   -3.06479409356005
C         1.20036670087149    5.64340309104540    1.11669900418493
C         8.28691330103965    5.47280186516924    1.86670664035331
C        -0.10433763639224    3.91932127713225   -0.09564478913338
H        -0.82581102533939    3.92102260452519    0.70594992140800
C         8.00591873591497    3.08043414672326    1.69715068057701
H         8.38840699473981    2.09812356136832    1.46827740973845
C         3.48769747343597    4.05106677740962    5.58630221573961
H         2.52106568365927    4.07624129731368    5.10603656334356
C         3.95950023544332    7.24894731780713    5.82531480416396
H         2.99183217313029    7.14979282412500    5.35947759047589
C         5.97521508288650    4.00251569283029    6.78425801438101
H         6.94789266422902    3.98638772162021    7.25154753875867
C         4.83496999331171    3.84983737920545    7.55407519766405
H         4.91701774852633    3.71280113680630    8.62104807174441
C         4.17280258230749   11.40857384722775    3.49567077691034
H         4.00786821062525   12.13768102100695    4.27437334805840
C         5.87871226696681    4.17245336347477    5.41407268506680
H         6.77566812026609    4.28549646253973    4.82329257045089
C         0.96429118592757    5.28539494317654    2.47130590846432
C         7.36129538345757    8.02494096742094    2.43426549331511
H         7.01583524201133    9.02635490556036    2.64941538644955
C         0.56630125156444    3.10087632249001   -2.26456375311428
C         3.58682465263782    3.87282052666531    6.95187514034801
H         2.69531782399840    3.75203795391912    7.54894357570652
C         4.08371997810111    7.27137237121693    7.20100947927306
H         3.20596546098377    7.19475509599579    7.82475420062946
C         0.36239363293829    2.19616089860666   -3.40295696173721
C         4.37074785595619   10.85956310873759    1.16653088943792
H         4.35974387195781   11.16164647372540    0.13022487352931
C        -0.30951344901344    3.09324261632227   -1.18045756933587
H        -1.17439887133580    2.44699437298481   -1.19946608715212
C         4.15689700067370   11.79721371423369    2.16639896461482
H         3.97812903447121   12.82979615738840    1.90894734136794
C         5.33798254715939    7.39279824038437    7.77698708483698
H         5.43967809729868    7.41020570487040    8.85098872075838
C         9.12942938189211    6.59454043452145    1.71629019114153
H        10.13939462033960    6.43518809528341    1.37025639166822
C         0.55372751957744    2.64095475137469   -4.70915814339162
H         0.83379351838597    3.66907823572990   -4.88705665479756
C        -0.02415841365339    0.87403854568879   -3.19275352454662
H        -0.15745426291015    0.51154792600126   -2.18310717970863
C         4.40024061258490   10.08525956636521    3.83398706157745
H         4.41690634829752    9.78766427669715    4.87270143404948
C         6.46101166080643    7.49298894342965    6.97281097692649
H         7.43837403392269    7.58976091579344    7.42044682684396
C         6.68438268555240    3.22311068415612    2.12809454934126
H         6.07057030086743    2.33870120394211    2.22354437463533
C         2.53582299092363    0.62947225454426    1.27487301547342
H         2.06360250329343   -0.24212468874392    0.84843165747392
C        -0.02543196731284    0.47296164368690   -5.55727243582264
H        -0.17737276915816   -0.19420602629779   -6.39202333012676
C         2.77741318149872    0.68676569087394    2.63797264624418
H         2.49962088821004   -0.14192655182063    3.27156340774160
C         0.35639840934960    1.78599568888136   -5.77722144822959
H         0.49902707896689    2.14556587001810   -6.78538713390683
C        -0.21264630899556    0.01900701583343   -4.26216287532590
H        -0.50685746890118   -1.00501432669564   -4.08566302412369
C         2.90531473619890    1.68757639718136    0.45787734680298
H         2.72261085092992    1.64507353842136   -0.60503095757856
C         3.50110204657459    2.80562606532338    1.00807008640660
H         3.79586712361667    3.63156215646004    0.37754236849046
C         3.37308839322857    1.80471581013115    3.19777446754374
H         3.56407008970430    1.84095612831318    4.26055486624713
C         0.56700890674056    6.57748765467901    4.67791978217932
H         0.78288018897268    7.55141647892093    5.10996575927595
H         0.97333821164114    5.80470878326473    5.32768549719052
H        -0.51793361906679    6.45489394579949    4.66119013776491
C         1.08028455677277    6.47119215252987    3.27699362713821

