20
CSD_code = WIMHUV | q = -1 | S = 0 | Stoichiometry = C7H3N2NiO2S5(1-) | MND = 4
Ni        3.94697334038054    1.11489980766561    0.21149797243769
S         3.72876016928733    2.17966445229334    2.12351010934675
S         3.04944882871575   -0.43073114591362    1.49238570116394
S         4.83607893780961    2.84063500350797   -0.81034361435836
S         4.01875367167413   -0.21537418521420   -1.55197252700303
S         4.82166860974969    0.83790299779068   -3.05264482158993
O         6.06518442225484    4.48381951763983   -3.03167043529241
O         5.92525710654928    2.82096268630276   -4.54056707817529
N         2.67118659924952    2.36170215692298    5.83443023501941
N         1.62656125813114   -1.67562883762041    4.86306718514389
C         3.05377703542847    0.73136251165798    2.76677917954239
C         2.60366996458866    0.53755627283783    4.05086856944524
C         2.64922862824237    1.55221516125167    5.01687460604615
C         2.06999782121602   -0.68645992385902    4.47712829593637
C         5.15151177182335    2.38436416559246   -2.39452129771465
C         5.75273179719874    3.35234522686242   -3.30801483424160
C         6.50638679291426    3.68409267327771   -5.50061785161119
H         6.52553573543202    3.12833960233120   -6.43489868882408
H         7.51877243093257    3.96262840879891   -5.19817967122608
H         5.91011507842247    4.59370344787371   -5.60441103404457

