73
CSD_code = WIMQIU | q = 1 | S = 0 | Stoichiometry = C30H32CoN6O4(1+) | MND = 6
Co        4.71656951998185   11.75908980167022   10.97662078254249
O         3.41658954973963   13.00036271044156   11.57393064479744
O         2.04240945490291   11.34799516252674   14.34766722263863
O         5.79797930008605   10.42841782581239   10.17231843774475
O         7.72474417316490   12.30550322498994    7.92142387276092
N         5.26173751487551   11.12382783480172   12.70028999927821
N         3.31196943298908   10.47835964157754   11.05518178185561
N         3.08625493433439   12.82512083959312   12.92150941701703
N         6.02557881148895   13.15946542541959   11.00612802061198
N         4.32144935036951   12.29948026333340    9.19580993181505
N         6.97528748584385   10.95435516010008    9.63109409025985
C         6.52156098454563   10.76208365908310   12.94916914209179
H         7.23082780549804   10.88831717326287   12.14444777234274
C         6.90810626937534   10.22536396090640   14.16350657722928
H         7.93723077150352    9.94534074053596   14.31998052641229
C         5.96042333607604   10.05105407533509   15.16148443285740
H         6.23259130227500    9.63333026049833   16.11816566309024
C         4.65218579022289   10.42074264186087   14.90087742427995
H         3.86258101052794   10.30995512330970   15.62626462137196
C         4.35033912596432   10.95033272881616   13.65801875878039
C         2.94789668820807   11.40678902536416   13.28500231069395
C         2.53143166260717   10.48934764323036   12.13916675017235
C         1.41141609948041    9.67692642454696   12.25287448717632
H         0.82103459062570    9.73052030411132   13.15386106807977
C         1.09880696492458    8.81487949260045   11.21832349646685
H         0.23589909432764    8.17066479749758   11.28280137661888
C         1.92863992906557    8.78817485744160   10.10597103497710
H         1.73689977392762    8.11813524750211    9.28371087515908
C         3.01816363917420    9.63590822838077   10.06477082889501
H         3.70369518187049    9.63067626650887    9.23030068815980
C         1.51275028002210   12.65308459866269   14.58322538815420
H         2.00418005406131   13.08373034443398   15.46250102646745
H         0.44399158695596   12.55408526191785   14.77478232665242
C         1.82346667579333   13.47171729960775   13.32214368969462
C         2.10566972474675   14.93991715437739   13.62548061774570
H         2.91241739675652   15.02884834145270   14.34825645525439
H         1.21544920481592   15.41674956274408   14.02519875504772
H         2.40123294776281   15.44527452873229   12.71016423797526
C         0.71556924740636   13.34278795953985   12.27339748039086
H         1.05970992763026   13.77888535497368   11.33847570390870
H        -0.17133598061232   13.87375212546434   12.60722533277119
H         0.45986075468507   12.29819373952572   12.10370557401962
C         6.06899433041685   14.05961621486642   11.98984138893572
H         5.36135549452554   13.93245608883028   12.79581468689031
C         6.95251755220350   15.12329569280771   11.97706165330448
H         6.95123604438765   15.82800001103236   12.79276619227150
C         7.82485325048514   15.26885937537517   10.90831224802655
H         8.52369123187179   16.08982710725293   10.87044051111276
C         7.77575899509530   14.33790485139770    9.88505555093379
H         8.41943286251026   14.39015475007802    9.02196256570864
C         6.86071863937536   13.30328963998732    9.97665614425194
C         6.74621395493219   12.21894264366013    8.91541950521506
C         5.34331553563252   12.38510273379462    8.33963474507048
C         5.15777479120281   12.65697235375222    6.99095795539849
H         6.02275601872026   12.71317163948307    6.34924105421261
C         3.87551799216946   12.86396985398417    6.51742500858156
H         3.70410216000545   13.08010124972685    5.47450283087975
C         2.82022271944068   12.80273380624397    7.41693966269598
H         1.80553857321429   12.97842914072149    7.09857499215769
C         3.08707193435512   12.51467786794847    8.74102521889689
H         2.29954702626878   12.48027352221277    9.47922277222739
C         8.49267949330008   11.10178833930343    7.91796861450891
H         9.44417263452034   11.28317997234254    8.42994700774792
H         8.68301794972380   10.82667789642961    6.88048335985045
C         7.65174704579843   10.06223920232266    8.67221794812071
C         8.50286747633331    9.06589792850931    9.45306078739486
H         9.17172389713616    9.58885830657996   10.13154160601709
H         9.09122216124709    8.46067469862216    8.76958012625896
H         7.85333987098196    8.41798489093261   10.03520937939946
C         6.68466412249104    9.32913792863965    7.73888578567846
H         5.98792236022176    8.74600644726868    8.33652019774768
H         7.23825134476453    8.66046995968408    7.08588428779070
H         6.12311116866763   10.03475907371818    7.12891758845364

