79
CSD_code = WIMROZ | q = 0 | S = 0 | Stoichiometry = C24H48N6Ti | MND = 6
Ti        4.14504556686301    3.95530654804906    2.20733775505457
N         3.33362772507667    2.59958512993979    0.98858795901510
N         5.66824177776389    3.81014554546327    0.92641234629564
N         3.26503548706526    5.45606053489070    1.22933357896054
C         2.08828334728081    1.86552507486397    1.08558134189857
C         2.29866853986535    0.54205620005549    1.83745638384141
C         1.39847274505601    1.58770051835263   -0.26328849651139
C         4.17696326874921    2.28169607099585    0.00341448566333
C         5.38419428793597    2.94862852377081   -0.05332854405783
C         6.91008163261094    4.55204924607395    0.84569902893940
C         8.12053315535766    3.73012848001602    0.36432882266099
C         6.74199263336394    5.79092180912081   -0.04764907168567
C         2.37273755303129    5.44768051862874    0.08787421161984
C         1.29284769046038    6.54583573802276    0.10765771416614
C         3.17099792260458    5.53514122812606   -1.22219010379711
C         3.69974316815096    6.63544147448381    1.67977410691393
H         1.41290722232649    2.49105110691278    1.68645392550655
H         3.93930375955829    1.52411997825088   -0.74240995421569
H         6.06942704914659    2.76222373407818   -0.87938763545907
H         7.12349069184338    4.89909062419176    1.86676746445312
H         1.86293545235754    4.47391834961598    0.10778477825951
H         3.37428702948603    7.57920869495377    1.24381995701107
H         2.73344448231799    0.74542942535765    2.81450259196514
H         2.97536725695375   -0.10133272826255    1.27736680788191
H         1.35079932374409    0.02346652157124    1.96931539899468
H         1.42505095609913    2.47136158360788   -0.89804480174249
H         0.35942584962848    1.31633262707916   -0.08910360556905
H         1.87318758663359    0.76508080555098   -0.79304465256132
H         8.13786501796432    2.75358304576832    0.84447442785480
H         9.03856188947517    4.25705653212749    0.61567090402135
H         8.10322257784616    3.58690819369022   -0.71357087212083
H         5.92139331287108    6.39978942911652    0.32773908740560
H         6.51694252570830    5.48653798832033   -1.06856497161014
H         7.65429166191724    6.38461209676454   -0.05197350500175
H         0.85497835418941    6.63679637865070    1.09986721994060
H         0.50477316363783    6.29106833208022   -0.59776665443769
H         1.69975699489926    7.51178162684652   -0.18226261316936
H         3.89590556395160    4.72389432624698   -1.25971420256092
H         3.70147172097794    6.48467782902110   -1.27273496109782
H         2.50549152358595    5.45938397516471   -2.08017186266725
N         4.95656060042877    2.59951452281950    3.42599338925763
N         2.62198421858195    3.81014136159777    3.48844143632087
N         5.02482536869921    5.45624832962616    3.18522482596692
C         4.58991944719089    6.63553952284251    2.73473269900640
C         6.20174629920092    1.86521470751624    3.32874934760735
C         4.11331528582788    2.28162750471149    4.41125334905857
C         2.90613657116457    2.94862474706099    4.46816596008940
C         1.38021969036309    4.55214986048137    3.56941428238665
C         5.91725528858543    5.44806599722656    4.32658317486831
H         4.91523895819438    7.57938583200075    3.17061673027630
C         5.99091908599448    0.54174240724868    2.57700327142466
C         6.89182629050245    1.58735874321776    4.67747138207270
H         6.87709953361401    2.49057550928417    2.72769612022724
H         4.35102090537434    1.52400233345593    5.15701249365202
H         2.22103396913186    2.76229399017969    5.29434875351061
C         0.16979476101012    3.73021749771693    4.05082722903970
C         1.54849192049276    5.79088246513447    4.46292397323831
H         1.16670769276450    4.89935412854330    2.54842115687552
C         6.99692416968547    6.54643925635344    4.30661049538128
C         5.11916035254235    5.53544587229223    5.63675336034726
H         6.42721971275730    4.47437698498910    4.30665750536176
H         5.55597345944571    0.74515403840229    1.60004172137850
H         5.31420089878734   -0.10146607162599    3.13727730674200
H         6.93864528555591    0.02293911515728    2.44495937727152
H         6.86559538426685    2.47109382271511    5.31213924488981
H         7.93077043777440    1.31574987450854    4.50304940232861
H         6.41707113189679    0.76489046477268    5.20742621450963
H         0.15238036593830    2.75373746638088    3.57055198523283
H        -0.74824915447815    4.25721099931302    3.79968216966367
H         0.18724608026927    3.58685555236899    5.12870680671263
H         2.36903845539778    6.39978759896561    4.08748757446332
H         1.77370472115206    5.48634210654623    5.48375763106459
H         0.63621093895741    6.38459712334671    4.46749135619570
H         7.43461063342803    6.63748562234687    3.31432851007627
H         7.78516553615689    6.29186307808708    5.01191590997000
H         6.58984683755364    7.51230135585896    4.59657731205094
H         4.39442275808723    4.72405591664075    5.67443201349217
H         4.58850959975792    6.48488213805778    5.68731994884557
H         5.78480903959285    5.45987510630375    6.49464078908456

