25
CSD_code = WIMTUK | q = -1 | S = 0 | Stoichiometry = C4H14Cl4N2Rh(1-) | MND = 6
Rh        9.21786896103771   -0.00110505842943   -0.00015258775507
Cl        9.08262250074470    2.24863968054090    0.63790394493122
Cl        6.89652085525614   -0.16713460257082    0.26202547498671
N         9.69177033226752   -0.72599599153928    1.91458682790189
H        10.44200897040320   -1.37143754556480    1.63767911220045
C        10.26532860799843    0.25023664636874    2.83912157770696
H        11.08917485328699    0.77033400598366    2.35098600216942
H        10.63273949756486   -0.24585822786757    3.74688719280995
H         9.50462020046630    0.98224095350293    3.11117624183940
C         8.64871811840366   -1.51399488333907    2.56855400045448
H         7.81270378657402   -0.86386442858310    2.82853217951258
H         9.03612436392386   -1.98902611208098    3.47967864076834
H         8.29128141869422   -2.28170036659950    1.88238486723206
Cl        9.35727990244298   -2.24942159758861   -0.63868458808566
Cl       11.53946882734370    0.16793719584789   -0.26108207144814
N         8.74634711004714    0.72608379333168   -1.91459211745351
H         7.99608615886560    1.37149911047626   -1.63766760062546
C         8.17278815715155   -0.25010617994940   -2.83915452279190
H         7.34891137810309   -0.77020522107486   -2.35106416819502
H         7.80540525453922    0.24603074053382   -3.74690414502810
H         8.93347636755976   -0.98212631027262   -3.11121809224622
C         9.78942466878766    1.51409624655710   -2.56852480223169
H        10.62541726672681    0.86394666341949   -2.82851598089594
H         9.40204397299159    1.98917106622183   -3.47964043896009
H        10.14686846881912    2.28176042267632   -1.88231494679699

