57
CSD_code = WIMVEU | q = -1 | S = 0 | Stoichiometry = C21H26MnN4O5(1-) | MND = 5
C        -0.39196397729118    2.66039467727312   11.42401456600368
C        -1.54322205343355    2.59767770889742   12.43131016582643
C        -1.36937130681864    1.95611786958145   13.81068849769823
C        -0.11309132901620    0.87329951977677   15.51771285425409
C         1.31769966721984    0.37784420474566   15.73977761708672
C         3.35019899808668    0.07535155196754   14.47771473797909
C         4.17808622306700   -0.49631130906752   15.43176678749580
H         3.78415003387893   -0.76447087273368   16.39823658939351
C         5.51173352165352   -0.70972600499150   15.11505018778102
H         6.16352581750220   -1.15975659488990   15.85137322812035
C         6.01397206532430   -0.35652228221568   13.87436314349839
H         7.05632730229977   -0.53174577196577   13.64570250706184
C         5.19779688375490    0.22060620635911   12.91244169502311
H         5.58552435017184    0.50229605337408   11.94732931738686
C         3.86153866808573    0.43455541669484   13.21420641039039
C         3.12842246039660    1.65133084817572   11.26543399266229
C         1.84115124778529    2.26090425848177   10.70551711285498
C         2.14005005581413    3.73005049462580   10.38388309555463
H         1.32512406374791    4.17370830286318    9.82089248010422
H         3.06069602174749    3.77324429426828    9.80530506476791
H         2.28130810397080    4.28601788401269   11.31064515281717
C         1.48540839602635    1.46418116199647    9.44242308327994
H         0.63255632290389    1.91879959753055    8.94592106818202
H         1.23518056381459    0.44131373820887    9.73237334653705
H         2.34142916076917    1.45053482609107    8.77113299791151
C        -2.69883033063162    1.84710298835170   11.73557456962293
H        -3.57054810576276    1.87754205860984   12.39316793187814
H        -2.93716927498895    2.36942850913777   10.80623773924571
C        -2.32855748407228    0.40067002548354   11.43406418534979
H        -3.16534580137681   -0.11980074151101   10.96996887433179
H        -2.05506760156633   -0.12206316042557   12.35041752270591
H        -1.47358244843260    0.35871619424137   10.76024348808448
C        -1.96765282215977    4.06076928867365   12.69113238639529
H        -2.20802982938907    4.52455039348871   11.73237970445550
H        -2.86163441749025    4.05320107609305   13.31788038962419
C        -0.86323774956478    4.85201054341778   13.38148345056977
H        -1.17963938824180    5.88058534217599   13.55100234586161
H         0.03523541695725    4.86270093782872   12.76756385645947
H        -0.61860448156706    4.40227270393469   14.34173275948816
C        -0.39678477420808    1.93849756422345   16.58322723595418
H        -1.44847903517354    2.20659787567227   16.58747882391033
H         0.20037187136633    2.82742629730268   16.38051859205600
H        -0.10984088518650    1.53733463640154   17.55314810977696
C        -1.03195235949574   -0.34657130086488   15.67593892074489
H        -2.07183296242914   -0.03566503791206   15.62630195724539
H        -0.83323704832682   -0.82646902486078   16.63185470673254
H        -0.82348077930020   -1.04970682231702   14.86640112871999
N         0.79660983341325    2.10093034828647   11.73739569580158
N         2.86602039537297    1.00597388463351   12.42049651333788
N         1.99433725475682    0.39256936640046   14.57272893150225
N        -0.18116372441491    1.40662026828740   14.14223027141702
O         1.73430329334331    0.04352205790288   16.83877606229897
O         4.21003138796945    1.77737805430939   10.71084760314771
O         0.61197555305582   -0.52735437205227   12.40712761801284
O        -0.62191868344867    3.24297482265948   10.36712515608926
O        -2.34282601915413    1.99597326808188   14.55897290196664
Mn        1.11339973868260    0.73608617528407   12.97376486754079

