45
CSD_code = WIMWAR | q = 0 | S = 0 | Stoichiometry = C14H23Cl2N5Zn | MND = 4
Zn        8.27011778502177    5.94260907503978    2.21715351180235
Cl        9.12492853811024    4.25568934471360    3.39058780455780
Cl        6.21077637319448    6.64431753277489    1.93090273539081
N         9.42230784955889    6.09169021582798    0.51475865498603
C         9.16469881599928    5.96702713995485   -0.78288485630671
C         7.80998282797228    5.64586140977289   -1.29106207781378
H         7.62354816630087    4.57563657889257   -1.20098905816349
H         7.72187079085441    5.92714697403366   -2.33676245849729
H         7.05421020464078    6.16671787805722   -0.70700508481315
C        10.34683641109017    6.16870016799302   -1.50223456861987
H        10.46852221753417    6.13220144869687   -2.56491210580976
C        11.32713927519626    6.42089011459918   -0.56115764725989
C        12.77240825847508    6.70275358856999   -0.75006388846421
H        13.04348220688669    7.66717745271191   -0.32169055211651
H        12.99900726993794    6.72027535576141   -1.81201105504278
H        13.38208484865240    5.93168224896164   -0.27994894821183
N        10.72925056513033    6.36244093888621    0.64483570235430
C        11.30296368976895    6.57484105399609    1.94599789924311
H        12.37774854246770    6.70620413100463    1.82450371728690
H        11.11262992757673    5.68773404699947    2.56101561851614
C        10.69091112104697    7.80227078125887    2.63292084520586
H        11.42210743098565    8.23089000259664    3.33218058409356
H        10.45461741257989    8.56087192759069    1.87988242005222
N         9.45418475805402    7.45317506086625    3.33235200750803
H         9.71713899357070    6.86635077587194    4.12715835467441
C         8.77519381705188    8.63533485825265    3.86666509535223
H         8.33730183328767    9.19119121302748    3.03283728259334
H         9.47901549382874    9.29212456508399    4.39667029191600
C         7.66815226470573    8.23436063201205    4.84652467245071
H         6.92205780440338    7.61843332666118    4.34244896390239
H         8.10532706385621    7.66879767266277    5.67694007092264
N         7.03573016156339    9.40857446180179    5.37229097954364
N         7.73289918643667   10.22312654309995    6.17559388531632
C         6.93388388716052   11.23551097559492    6.46204830007681
C         7.36359686542787   12.34841363072965    7.35049308177437
H         6.70977107620327   12.41263155864143    8.21931299932928
H         7.31560342660832   13.29854442763903    6.81968021651432
H         8.38293778684656   12.17529261018703    7.68373430293175
C         5.69365158083668   11.07105087262153    5.81921270251791
H         4.84839030116648   11.72717737055032    5.86515280826292
C         5.79372340558188    9.88742799474610    5.12032527312164
C         4.80373086024838    9.18036168367390    4.27030718049130
H         5.22180438208750    8.91648709627743    3.29994954636852
H         3.93658708060090    9.81701426216048    4.11848422990288
H         4.47386744136547    8.25858899915058    4.75030056209242

