53
CSD_code = WIMXIA | q = 0 | S = 0 | Stoichiometry = C16H20N10O4S2Zn | MND = 6
Zn        5.23580755252672    6.47281904204567    4.70700826424107
C         8.11383114832778    6.30981208378013    8.09214182037770
C         7.32683557254193    5.80570021896114    9.13217554376368
H         7.72908743855575    5.76873348083854   10.13217527470658
C         6.04691465857325    5.37359826389144    8.84766512517798
H         5.41037562442709    4.97693401828607    9.62283760625197
C         5.57622328012321    5.46689333407315    7.54581823851304
H         4.58002476037985    5.14921340931081    7.28036459512405
C         7.54882342233111    6.34061545167647    6.81608412426010
H         8.12245769492235    6.72386014141841    5.98407226962882
C         9.45582199126170    6.80728513757142    8.29428394326826
H         9.95667066558653    7.24756953335645    7.42795568885480
C        11.89519407830146    7.16019762859353   10.84552595783286
N         6.31412681073830    5.94370412763639    6.54965328994955
N        10.01416309083437    6.74599163582128    9.44036610377553
N        11.24179609973244    7.22008522914621    9.61548452475516
H        11.75386348336500    7.65735681390438    8.84844526581830
N        11.16312945133078    6.57293513760352   11.81393371825133
H        11.53799145336566    6.50832003353637   12.74193258810523
H        10.22867400173762    6.26780503293513   11.60681759881453
O        13.01292841892390    7.59858957068831   10.96983286998565
O         6.70846066337287    5.21148652931687    3.44944731538039
H         6.25277590782325    4.36338299248624    3.44666315444544
H         7.55368690465513    5.07578447929150    3.88590666999692
N         4.21101883103197    4.89351279532278    4.83228246395270
C         3.28074607177194    4.21394339904476    4.58411147474644
S         2.04240366456278    3.29716312008028    4.24792038972487
C         2.35701146471625    6.63323810257713    1.32247607515435
C         3.14368695316912    7.13673047428972    0.28189820455546
H         2.74135369322477    7.17245843582187   -0.71811641094342
C         4.42330873021713    7.57002254826313    0.56594048541040
H         5.05950001186541    7.96643234619907   -0.20965011663575
C         4.89407412503793    7.47839512734591    1.86788703801248
H         5.89002974772603    7.79711775616900    2.13302681500850
C         2.92208060513244    6.60405428294622    2.59854202366902
H         2.34882496541604    6.22105740193278    3.43092283093938
C         1.01522888452242    6.13496926632140    1.12084460939368
H         0.51481965779261    5.69468808585659    1.98742162969215
C        -1.42475384463909    5.78124668266657   -1.42970849903335
N         4.15654224154992    7.00201888513144    2.86453230973817
N         0.45656267036158    6.19583251134308   -0.02510203980122
N        -0.77095694253593    5.72131071104713   -0.19988431900561
H        -1.28276448034489    5.28399688781474    0.56729953019655
N        -0.69310556116384    6.36876449298116   -2.39828006915504
H        -1.06825913621782    6.43336489693143   -3.32616223306162
H         0.24138406358360    6.67399217451411   -2.19146179874345
O        -2.54246343698066    5.34270047528859   -1.55372886270408
O         3.76357252470627    7.73547001711995    5.96440077795761
H         4.22044767323883    8.58292094982913    5.96718067140448
H         2.91907246670777    7.87223649486298    5.52697206162525
N         6.26057619925980    8.05232623478559    4.58134716314731
C         7.19186507074837    8.73034096103156    4.83025201501638
S         8.43152891179801    9.64512115629591    5.16724422845617

