30
CSD_code = WIMXUM | q = 0 | S = 0 | Stoichiometry = C13H14Br2Ti | MND = 12
Ti       10.13852308977475    3.07322738705291    7.51989287583795
Br       11.65231231842358    4.76578266059794    8.38743469237704
C        10.69975946512276    1.08940754957046    6.54123069480370
C        11.90981182268095    1.80605458240827    6.72344296370995
H        12.75467977614957    1.50756962743554    7.33136012968665
C        11.92227195901773    2.89346628054885    5.82030535884821
H        12.75159739703862    3.56976797713508    5.65699546125891
C        10.70680232765764    2.89522088758153    5.12411882774550
H        10.42973102307984    3.57286915775620    4.32666552578787
C         9.93178708791139    1.80864909520470    5.59027294761613
H         8.97974194882366    1.51258449697233    5.16776176568345
C        10.13856425645236    0.07196862310798    7.51981445759470
C         9.05999684148277   -0.82192712598774    6.90232628888514
H         8.61794563207900   -1.44973133832660    7.67333794495027
H         9.50484475745777   -1.46487753040544    6.14557025988254
H         8.26434526149007   -0.24877159332847    6.43464670475646
Br        8.62612284956183    4.76635923345728    6.65203038977827
C         9.57728225505343    1.08937675585114    8.49838945419908
C         8.36719496124909    1.80598180316802    8.31613365496655
H         7.52238743771809    1.50750432807245    7.70813520968627
C         8.35459606902431    2.89332170741695    9.21934057163776
H         7.52523793099191    3.56959572442309    9.38259054321511
C         9.57002153692036    2.89512618534941    9.91559427696921
H         9.84701002856295    3.57278247567485   10.71306830121892
C        10.34513842439333    1.80860208261404    9.44945387732811
H        11.29717215997909    1.51259430966021    9.87202420323474
C        11.21720741298550   -0.82177813362606    8.13738431506092
H        11.65933987860607   -1.44963272980793    7.36645600982859
H        10.77237667462031   -1.46468475009932    8.89418982697955
H        12.01279741569133   -0.24850972947771    8.60503246647250

