55
CSD_code = WINFAA | q = 1 | S = 0 | Stoichiometry = C28H24AsORu(1+) | MND = 10
Ru        4.62768880438380    9.11789625189315    2.62722628789136
C         6.51858944901033    8.48561914611888    3.62262051296281
C         6.74560450010878    8.47428042336208    2.23240099743213
C         6.55748276694051    9.79707699527505    1.74837991309849
C         6.25592913288500   10.64360518594219    2.84905363058457
C         6.20769070823390    9.84527959411117    4.00998082641923
C         2.12016081491431    8.74502491294246    2.17746063222978
C         3.12093419143472    7.90901920882844    1.45435101068755
C         3.87973024073350    8.73634801378308    0.61299639495551
C         3.61292035292797   10.09767350869628    0.96638719381607
C         2.68536177930594   10.10932179430199    2.02299433073157
O         1.18527286439161    8.37973015785755    2.85846338776128
As        3.48604278328606    8.12816088428923    4.59083293829902
C         4.62139040466068    7.83303524874001    6.16568260716565
C         4.85427174965047    8.92900133431574    6.99718728065666
C         5.62613908786709    8.79738821277918    8.13702532563252
C         6.17466316335948    7.56614782470858    8.46159845503838
C         5.93622247826655    6.46900420787564    7.65189123834133
C         5.16336406926852    6.59837834123387    6.50803036902327
C         2.90800173649258    6.31655508035932    4.20326155422034
C         3.86185757215527    5.46781795621954    3.64238474967179
C         3.53615416290606    4.16268263821692    3.32147564961392
C         2.24817652913466    3.70098428535735    3.54624046796502
C         1.29063836670556    4.54776155652349    4.07890375710130
C         1.61341317066261    5.85547985848132    4.40694707410899
C         2.05857694720852    9.00473952858700    5.58167116255196
C         1.68907020168921   10.32290045497904    5.36617347434211
C         0.71024105908155   10.90744914152888    6.15375348518242
C         0.10852677778390   10.17882827425161    7.16488001827042
C         0.50352836816477    8.87254380906068    7.41036080211663
C         1.48268603070453    8.28637363139636    6.62861621012884
H         6.73714482594233    7.68131755189145    4.31663878402272
H         7.09179096122712    7.63153338316501    1.65105276243143
H         6.76267338685268   10.12946792761560    0.74009002569018
H         6.16708920761984   11.72037775998135    2.81456138686683
H         6.16459491791036   10.20295772449686    5.03184265654299
H         2.99767700291531    6.83867212754258    1.33655536056996
H         4.47955872283163    8.41206730792322   -0.22873914646720
H         3.97179229578233   10.96721494410146    0.42915563649652
H         2.16582186697165   10.99385858066377    2.36812286749508
H         4.40236163607680    9.88740190194835    6.74957583167097
H         5.79663561191770    9.65126091398880    8.77514772926460
H         6.77814227991960    7.46162006047102    9.34963679658188
H         6.34896207864679    5.50587524041651    7.91139749809123
H         4.96971286258889    5.73070928431707    5.88709480876059
H         4.86310495799016    5.84837689939471    3.44060910447409
H         4.27999733544433    3.50843053297587    2.89123133771644
H         1.99066774805105    2.68413660983944    3.29318199115930
H         0.28322384058965    4.19275104682549    4.23336442166363
H         0.85559129696444    6.52899287627654    4.78786576801366
H         2.17665617284636   10.89582434470498    4.58627938866026
H         0.41963308280667   11.93240003859569    5.97883542336191
H        -0.66000405372741   10.63191184362337    7.77173410159061
H         0.05008255872952    8.31169430773908    8.21361149256166
H         1.82155913894987    7.27163932933624    6.82992223471533

