61
CSD_code = WINGEH | q = 0 | S = 0 | Stoichiometry = C25H27N3NiO3S2 | MND = 4
Ni        0.50452406482160    7.96254723657789    1.63794075738263
S        -3.00248627325891   10.42210579082912    2.36249921068483
S         4.66988686512672    6.07566251831089    1.40154686533027
O         2.29394265093078    7.55697989964836    1.69137199738615
O         0.09678532819461    6.34469648074701    0.82329833956037
O        -3.52069367066707    4.72632682294492   -0.39314996924704
N         0.76473640461678    9.58253882176408    2.41548418699238
N        -0.38210331980724   10.29364443086303    2.60776704781219
N        -1.29067293802832    8.42074650102004    1.62871158336909
C         3.27345266884917    8.25413144177632    2.13226370046247
C         4.59015478179184    7.71217683127409    2.06881662200019
C         5.67152081370115    8.40055024973226    2.54688867665257
H         6.64162347345760    7.92986943324653    2.50631316958938
C         5.55326557511097    9.70250587430588    3.07351412557754
C         4.30148326078014   10.25559357582591    3.13964592969110
H         4.14824681784855   11.24429210137460    3.53994164545487
C         3.15195166245517    9.56213731180002    2.69513746434415
C         1.87874567067431   10.15248731424022    2.80395813160229
H         1.79322221573681   11.14384890144449    3.24234348527138
C        -1.43509003734528    9.66482285253863    2.19167947242075
C        -2.32737071711782    7.72930785982126    1.18172806156969
H        -3.29518185128658    8.21122998698348    1.29320736598140
C        -2.26234388703238    6.47130785418685    0.59447974442264
C        -0.97501007290329    5.83062104770569    0.44219684476180
C        -0.86135848842783    4.48101243983434   -0.19752502651270
H         0.18642057349863    4.18991444193217   -0.21101979515370
H        -1.25977003633136    4.50809653420686   -1.20900550908572
H        -1.44980292672948    3.75082383340163    0.35299018790438
C        -3.50241798315279    5.81725804027448    0.13995945949850
C        -4.80561027808275    6.56235818163237    0.35564642019305
H        -5.61372040332693    5.94130260564042   -0.02344561441809
H        -4.80670992716068    7.50713839215379   -0.18276688920820
H        -4.97441576529671    6.75339953002915    1.41257989655029
C        -2.50082826805673   11.96557275862649    3.16243979947689
H        -3.41021874033547   12.53418287194443    3.32784382252681
H        -1.82318165687726   12.49982682916061    2.50544966046325
H        -2.01240119214635   11.73300642601797    4.10251374813032
C         6.36065763202824    5.98830949088448    0.84845323962620
C         7.10088531644583    4.85130441823933    1.14057674098293
H         6.65090041326143    4.06139720334999    1.72205807966839
C         8.40373812816145    4.74310085933116    0.68734023242843
H         8.97912261874235    3.85900632485020    0.91895979408957
C         8.97109529730227    5.76728751469664   -0.05209185186923
H         9.99083551870325    5.68586740492320   -0.39760682229552
C         8.22489362903892    6.89591926376495   -0.35333098221193
H         8.65943370453779    7.69218670078027   -0.93991716998571
C         6.91846484254803    7.00577903870564    0.08449278489100
H         6.33122852260299    7.87916006685858   -0.15798677196798
C         6.81684755594681   10.41174889637538    3.53270495698412
C         6.53504207202658   11.82089285887924    4.06030241250822
H         7.46943417620207   12.28721319777952    4.36548333516159
H         5.87710878274294   11.78950794075696    4.92545388470876
H         6.08443792256096   12.44305894596767    3.29064025894007
C         7.47116934260173    9.59841648885008    4.65771964777079
H         8.36481349144664   10.10580919735883    5.01473746523904
H         7.75725325834150    8.60726899969119    4.31702339583955
H         6.78065611988395    9.48675369832860    5.49093702992820
C         7.78242382829218   10.52780093658418    2.34441362784410
H         8.68486901586386   11.05495091833146    2.64640094778325
H         7.31435016046696   11.08194206020624    1.53337953623167
H         8.07086425602665    9.55009355068826    1.96781160826942

