37
CSD_code = WINGAB | q = 0 | S = 0 | Stoichiometry = C15H12CoN3O3S3 | MND = 6
Co        6.56316873989734    1.81511197664897   24.14594708717293
S         6.81845367467737    1.35926678650668   26.35471284708260
S         5.32361618496057   -0.02261123187901   23.66210976898194
S         4.81058381323187    3.23475318850265   24.37931076634098
O         7.72480494076359    3.31026527395049   24.46096553090944
O         8.09481927677570    0.70032882347596   23.83588370853912
O         6.49409208179405    2.25001833868051   22.27662088882326
N         8.38168927004383    3.34441003291981   25.59681477672483
N         7.89833756074866   -0.49095745799374   23.32047146260694
N         5.70116407347674    3.22448190728940   21.89567266924379
C         8.05968991281919    2.49750003078921   26.60875348611297
C         8.75907592303381    2.59974447848770   27.81706848780678
C         9.75877495328826    3.52876139051727   27.97014399149935
C        10.06608360533912    4.37417411978744   26.90266313324810
C         9.35737723185370    4.25484622971183   25.73405815382971
C         8.97493383892857   -1.20480829813390   22.95775715989825
C         8.85417084772243   -2.46908505719440   22.43962463479241
C         7.58026167537672   -3.02050852103367   22.29066944953503
C         6.48616893336608   -2.27938018233338   22.66373094179735
C         6.64212605993394   -0.98918410716053   23.18472037214932
C         4.82954698455787    3.79101542038014   22.76975082327692
C         3.97959543157509    4.80303736781500   22.30731426726373
C         4.03270842212888    5.21824005901713   20.99954180251783
C         4.94753171768111    4.61496137192962   20.13450317606117
C         5.76354266144009    3.62305511599599   20.61596731133546
H         8.48156488931173    1.92252667474290   28.60790584650180
H        10.29983885143052    3.60309722577245   28.89978718743264
H        10.84484744327492    5.11400003010612   26.98049826944374
H         9.52880826932801    4.87070178222058   24.86479833845318
H         5.48115275333108   -2.65657326183558   22.57064347046263
H         7.45810515898034   -4.01308763166822   21.88777820388292
H         9.73793590806191   -3.01605564653407   22.15745968426766
H         9.92064061786506   -0.70765194416429   23.10884193015074
H         3.29237880186907    5.23380767143658   23.01664294611099
H         3.37853385202798    5.99872880959529   20.64543188889126
H         5.02230548575312    4.91240569474680   19.10212383394486
H         6.49367015334609    3.10416353890477   20.01431170291252

