43
CSD_code = WINGAC | q = 0 | S = 0 | Stoichiometry = C14H25ClNORh | MND = 6
Rh       -1.59511110310847    4.40817738174227    2.19488536685630
Cl       -3.35828056474217    3.88063592101320    3.46306114461512
N        -0.36970124349515    3.42111952884808    3.70474620641650
H         0.61483135278384    3.56109175618026    3.45816534265112
O        -0.28900249275517    5.82997220800650    6.49401734597251
C        -0.56183924024250    1.97512600678466    3.87315802195900
H        -0.18662743627538    1.43094218569844    3.00493260854794
H        -1.63389486488329    1.79073365447302    3.97168617776065
C         0.17371137369754    1.61595758136786    5.17969399113730
H         1.15313320012739    1.18400617763026    4.97228257213724
H        -0.39545720477113    0.88975458546274    5.75573564439443
C         0.30710423605664    2.95667368485401    5.92407709269523
H         1.34752311080733    3.28572264363762    5.95746360819148
H        -0.06192781593850    2.91181505912677    6.94465538956659
C        -0.52207985903871    3.92865432325239    5.07628374339782
H        -1.57978598536325    3.85193393176243    5.34694104025967
C        -0.11059523075794    5.39168454731823    5.17165530223836
H         0.94578826145144    5.52083485891676    4.87077096168016
H        -0.74275768337521    5.97754304659865    4.47504510703510
C        -0.08280092115736    7.20949904988007    6.64857339253664
H        -0.24891060636741    7.43263130240008    7.70009101155285
H        -0.78598271757377    7.78685248771638    6.03587468851901
H         0.94104789664446    7.49389742594576    6.37184580232361
C        -2.86610336845366    4.54865168375320    0.51296044837220
H        -3.79977134275006    4.03288161696946    0.73725848854459
C        -2.68572377003986    5.82210579001583    1.05004665004701
H        -3.48159096844666    6.21206742050147    1.68566080562272
C        -1.81395122313419    6.87845109682747    0.40246756543009
H        -2.24723206467805    7.86257235863020    0.58964398603769
H        -1.81488789252656    6.72559997162365   -0.67740941320358
C        -0.37524617765842    6.85436204583549    0.95040873353266
H         0.32685083670603    7.20556720169432    0.18567605397699
H        -0.30461600554376    7.54644536185871    1.79345577397805
C         0.04890391746486    5.48578767436851    1.43668652841331
H         0.86454359858647    5.53320420385661    2.16151467115243
C        -0.09212015981262    4.30833091552914    0.69890774142386
H         0.59641143888292    3.49133360441287    0.92012476122862
C        -0.64954064951946    4.28076711979235   -0.70902996357604
H        -0.15431209111738    3.48922982118032   -1.27503297949824
H        -0.41674550983544    5.22427456706437   -1.20415933295785
C        -2.16801861691967    4.02452505149053   -0.72050108623212
H        -2.62257140965732    4.47302776322681   -1.61018590772111
H        -2.34606300326951    2.94775538278195   -0.77363508703486

