45
CSD_code = WINHUW | q = 0 | S = 0 | Stoichiometry = C16H18N4O4S2Zn | MND = 4
Zn        6.16573378547822   -2.64196125868160    1.78875948890236
S         5.02887352860530   -1.05540431930555    0.17214095837617
O         7.80922788642598   -1.54189000983882    2.42319540453104
O         5.84758519035750   -1.19489505769860    3.31916507121702
N         3.15659238873074   -1.28922905083701    2.03978700984193
H         3.56157647454384   -2.19488102321438    2.26544048772345
H         2.52351886368306   -0.88305873476457    2.71008796625945
N         3.31235489142555    0.72800505434756    0.94359331694899
H         3.73495463817342    1.26943793105910    0.21036442721081
H         2.50230035115955    1.08501025813971    1.42133065612958
C         3.76649365629806   -0.52060202758295    1.14576479374361
C         7.07685673509969   -0.99253022571859    3.28821005397634
C         9.03957554594967    0.28577675988455    4.15412645089078
H         9.60627969235481   -0.09626279904835    3.31823322730417
C         9.61568778504841    1.13245244271763    5.08294675378566
H        10.65241290177749    1.41978783975703    4.98192675210441
C         8.86420035191719    1.61449828347993    6.14275095750527
H         9.31712457097984    2.27379187448695    6.86925484056830
C         7.53302741050706    1.25181603646289    6.27384035975762
H         6.95051493839120    1.62658910574136    7.10330922859876
C         6.95159359228267    0.40874081170134    5.34540395615173
H         5.91741368849133    0.10959740404494    5.42830940704908
C         7.70389586155964   -0.07805468369687    4.28249817161046
S         7.30092121913240   -4.23279526173300    0.17556848616461
O         4.52309470513496   -3.74217997605025    2.42550971740034
C         8.56451262701276   -4.76544557547397    1.14891292925698
C         5.25616966823389   -4.29096973791880    3.29029586213485
N         9.17448030171673   -3.99538932000686    2.04153095559019
N         9.01922238507284   -6.01409690720458    0.94781343389956
O         6.48507191652490   -4.08657106072472    3.32178787993850
C         4.63040311957771   -5.20752778894825    4.28347481966494
H         8.76959673408608   -3.08941423416764    2.26592622105986
H         9.80980727842317   -4.39983386736612    2.71094444475132
H         8.59513335010599   -6.55717997473746    0.21668983281229
H         9.82881076328363   -6.37083785919109    1.42652193189771
C         3.29488094968212   -5.57217548982199    4.15501000777816
C         5.38364648419539   -5.69584736538357    5.34507446790360
H         2.72733600554438   -5.18797390130218    3.32079060186934
C         2.71979132458481   -6.42095914797464    5.08252843962151
C         4.80323575993907   -6.54100772474871    6.27226366008174
H         6.41788545362123   -5.39706399296970    5.42745620376411
H         1.68301099250591   -6.70787616077948    4.98209390508480
C         3.47216979499122   -6.90434236616760    6.14119219762908
H         5.38671776222171   -6.91801563544074    7.09992985699183
H         3.02010667516772   -7.56553126331484    6.86654440452431

