103
CSD_code = WIPMEN | q = 0 | S = 0 | Stoichiometry = C48H45CoN6O3 | MND = 6
Co        2.80032486917581    4.38378432989606   -0.85141464389534
O         1.29436403673877    5.12733574065917   -1.66719824598265
O         1.71056779754118    3.77383233136339    0.56782920288378
O         3.89144638706755    5.05919765984111   -2.28672778906572
N         3.01463208226947    6.03062351626316    0.06818343681457
N         3.17131530343497    8.22387035973600    0.37549956345567
N         2.44133952390016    2.74289573948393   -1.75645971293231
N         1.33878218199950    0.87068738263912   -2.22321074336363
N         4.40916560320520    3.67065274729622   -0.11416747057471
N         6.57954853636076    3.57873477594701    0.35409882317494
C         2.77921423367437    7.22506751393237   -0.47691721074356
C         3.68546526232773    7.62644914267020    1.50154158454142
C         3.55119459078408    6.23824696760942    1.31097880628304
C         3.91008908826240    5.35677166216789    2.32620936724661
C         4.45487776679922    5.88932222188448    3.47645422462271
C         4.62842549034193    7.26368751570807    3.63804978698023
C         4.23283961086165    8.15574470163812    2.66030655684112
C         2.08467042327796    7.39663572386794   -1.72473743116326
C         1.29110057105209    6.30156305676564   -2.18890036163767
C         0.40790055484785    6.53174136746845   -3.28517157946182
C         0.42354544247467    7.73156541790390   -3.94892056241798
C         1.31326742616507    8.74186523046839   -3.58311321148690
C         2.12541039575365    8.57264622300496   -2.48910416594757
C        -0.47489973620478    5.39345679008182   -3.69536506056950
C         3.05163103399892    9.65434911689049    0.26130942969372
C         4.35245533953251   10.28451758511205   -0.23360961815397
C         1.28754307382349    2.09604856940345   -1.61747723401815
C         2.58701136738013    0.74434368391969   -2.78422369220188
C         3.27384691236577    1.93984648326206   -2.49142490189765
C         4.58075285897253    2.11517928358851   -2.93511842529762
C         5.16697841533703    1.08411855184197   -3.63903176791773
C         4.48503712407713   -0.10278327757641   -3.90657349360003
C         3.18274257655819   -0.29098329544108   -3.48827721867531
C         0.18450193742611    2.57633805892428   -0.82060647080016
C         0.50655393128318    3.38957055651254    0.30498194279788
C        -0.54412888937856    3.74273841851432    1.19523594566198
C        -1.83971511318732    3.38078331125583    0.91211306211828
C        -2.15705473158147    2.67725531510840   -0.24718244472753
C        -1.15273666680662    2.27907291186605   -1.09880950024086
C        -0.18544656163248    4.54878756711859    2.40600197618115
C         0.37143777037874   -0.19675036897297   -2.21023835194255
C        -0.37017247867901   -0.30758925916317   -3.54113480429196
C         5.56707813296229    4.32061964239120   -0.18771089651594
C         6.02896359914647    2.40221601317179    0.80251000358513
C         4.65306927422380    2.47333633209119    0.50663833188244
C         3.80826783084887    1.42594756999292    0.85866237846344
C         4.36975811178035    0.32651546182269    1.47377208252677
C         5.73689170905921    0.25486214254439    1.74216896891023
C         6.58830223666300    1.29222862235368    1.41684079129368
C         5.74460631842264    5.57420763643383   -0.88029611378467
C         4.90953608565146    5.79850059342741   -2.01884136302921
C         5.25765075292216    6.87340892780235   -2.88713534632957
C         6.22734453140979    7.77071686253285   -2.50774758705873
C         6.90554189742847    7.64497583935547   -1.29622531133509
C         6.68485956226595    6.53927780087047   -0.50865535900138
C         4.52951687689476    6.99578209626260   -4.19053830215003
C         7.98878480640696    3.86715037914255    0.41199866587489
C         8.41203256658465    4.32355231128671    1.80713987187177
H         3.73371407536067    4.30010130804689    2.22245186647287
H         4.74737319926273    5.22751444700104    4.27854539064306
H         5.06394227109606    7.63847071713326    4.55247653523690
H         4.34436001137584    9.21958730272924    2.80458696320976
H        -0.23492949012205    7.88131525418298   -4.79372394041669
H         1.36659008151918    9.65103122939409   -4.16293703184742
H         2.84586845523759    9.33979431941080   -2.26212160129905
H         5.10443201564300    3.03604121605488   -2.74523316225711
H         6.18069440458559    1.19462266547243   -3.99499276622575
H         4.98376207648963   -0.88714967725620   -4.45614706005152
H         2.65903489716103   -1.21034338057361   -3.70176410814512
H        -2.63179674621432    3.67990673512702    1.58531536030150
H        -3.18737438157278    2.45369824996259   -0.48031248012736
H        -1.41376154980636    1.78018505795984   -2.01896301490781
H         2.74993998348319    1.48988301833834    0.67063465285202
H         3.73800295365834   -0.50166990295735    1.75875067105454
H         6.13585935935618   -0.62688177765478    2.22089940396278
H         7.64403544875033    1.23284411408193    1.63334145643541
H         6.44964289454300    8.60851111581537   -3.15547207551445
H         7.61151179856649    8.40146908289161   -0.98810978643347
H         7.20364776460588    6.44785343034232    0.43317043223274
H        -1.07549842502780    5.06500503163414   -2.84762052648145
H        -1.12734225743160    5.67862681845154   -4.51726686779945
H         0.14149778339482    4.54652891733222   -3.99666159826167
H         2.21763003499383    9.89077931995911   -0.40126967462625
H         2.81173589052826   10.04351075029212    1.25651526720049
H         5.15300498516794   10.09899441447900    0.47845098860312
H         4.65147758776284    9.85321272219315   -1.18623109606931
H         4.22688552121230   11.35774574423030   -0.35136359592266
H         0.34978058409397    3.92970001770646    3.12642468919891
H         0.48516970357455    5.35680352215385    2.11727305023386
H        -1.07305242554959    4.95867035364968    2.88217847911818
H         0.91016064264636   -1.13045237019807   -2.01462312177585
H        -0.32798919123433   -0.02434074538249   -1.38968729879310
H        -0.89460167558161    0.61694414797822   -3.76981311623619
H         0.32890113999869   -0.50591838062691   -4.34978850104003
H        -1.09363882304213   -1.11728978344906   -3.49569467922948
H         3.51339333325648    6.62582878145301   -4.07989350442149
H         4.50908857984787    8.02606971080410   -4.53812325805471
H         5.02434845314970    6.38552699613025   -4.94774656156422
H         8.52886336956974    2.95226792320621    0.14581466642624
H         8.21856709805439    4.63207867421507   -0.33267357726736
H         8.21724920980345    3.54171724908654    2.53700381936066
H         9.47378727497614    4.55515171916463    1.81513355603723
H         7.85650244821183    5.20883437808747    2.10820834469773

