77
CSD_code = WIPRAR | q = 0 | S = 0 | Stoichiometry = C40H30Br2N2NiO2 | MND = 4
Ni       -3.57226515876507    9.88196167291043    9.48020161338648
Br        0.71389209043325   14.75815685651494   12.55854578743855
O        -3.59916013549815   11.75277488420063    9.68840525052511
N        -1.76374870356477   10.02617775517799    8.86275909651165
C        -4.57388847877241    9.28388870688337    5.82285143048497
H        -5.43901659007229    9.92386180485481    5.72785779890503
C        -4.48740315139604    8.12317293204311    5.07421598332761
H        -5.28704126251714    7.84888777744180    4.40272843307397
C        -3.36718479788782    7.31849416458534    5.18840181311319
H        -3.28628072252647    6.41669084423063    4.60002649608132
C        -2.35503960127523    7.65829155686476    6.06759342128992
H        -1.48819778771766    7.01970394788003    6.16122904642434
C        -2.44358364411984    8.80944054303570    6.83952220607553
C        -3.55363877264629    9.63748811105755    6.69188913700293
H        -3.63265411810800   10.57965523669679    7.24000425051069
C        -0.17124229328883    9.70155927990873    6.98477314261227
C         1.00435732924040    8.98469742245119    6.81360599541031
H         1.12318387033822    8.02400524672781    7.29501860629628
C         2.02769488981223    9.49430205868050    6.03229585102660
H         2.93860704142931    8.92807999929778    5.90582554163311
C         1.88476439171474   10.72623679814851    5.41882336693407
H         2.68348037029128   11.12479574670254    4.81157230496617
C         0.71340117485676   11.44699080860508    5.58616379659375
H         0.59684379160833   12.40846576447315    5.10860647485275
C        -0.31100762339072   10.93659833767130    6.36100135349658
H        -1.22448761400745   11.49889236406112    6.48925355004198
C        -1.31301294555258    9.13358335156216    7.80324428978924
H        -0.99304123733428    8.19235929424183    8.27174364524224
C        -0.92537637411216   10.83353712212724    9.40655772429181
H         0.13411058276071   10.75906287068261    9.15067492764325
C        -1.28275939157281   11.93790802676699   10.23789135851099
C        -0.29531666108332   12.65770513153860   10.91999749214973
H         0.71858844804055   12.28475158903773   10.93364013032728
C        -0.62020881093592   13.81846260185091   11.57289711334816
C        -1.91440327471953   14.33746657414721   11.51281205468233
H        -2.13884020870346   15.27360087470888   12.00163713948925
C        -2.63794825305687   12.39696027193126   10.23404117753746
C        -2.89051988101492   13.65397571448895   10.84151092693878
H        -3.89549252406531   14.04230790074605   10.78947256028804
Br       -7.85727406019380    5.00615951716146    6.39985162159014
O        -3.54529031589225    8.01125429205430    9.27189735502749
N        -5.38099537931865    9.73749037115203   10.09734608856559
C        -2.56978734880102   10.47811886599095   13.13595603116643
H        -1.70537068965326    9.83723155914478   13.23114634044285
C        -2.65451317771457   11.63982976565567   13.88330583888032
H        -1.85412929530656   11.91398867996480   14.55396138106144
C        -3.77387120771618   12.44561349141549   13.76893876404655
H        -3.85337020793609   13.34816684446877   14.35636214092018
C        -4.78704514513524   12.10594143660381   12.89083805711271
H        -5.65324468169640   12.74536519077414   12.79705886745384
C        -4.70024430987986   10.95387460113932   12.12014239031524
C        -3.59095490631326   10.12475406743097   12.26791828347493
H        -3.51343826880515    9.18191065861293   11.72083233369821
C        -6.97266287829470   10.06119642597053   11.97620453724081
C        -8.14879713722061   10.77718249875006   12.14731570590760
H        -8.26839341307776   11.73765940631406   11.66564812384625
C        -9.17164581613882   10.26699841182189   12.92887959448897
H       -10.08304204357441   10.83249426458118   13.05532189862410
C        -9.02765736775676    9.03537359604146   13.54273395524584
H        -9.82595723686983    8.63634148153925   14.15022483673903
C        -7.85577257001344    8.31548402478586   13.37545972786044
H        -7.73839094397806    7.35423940825035   13.85328608200264
C        -6.83189599158959    8.82641807383130   12.60027633857644
H        -5.91804321630332    8.26471533724231   12.47201302183518
C        -5.83152874622567   10.62970897531127   11.15726705321826
H        -6.15201786410073   11.57093823892085   10.68912642621885
C        -6.21919445123714    8.92978133884628    9.55383503283032
H        -7.27861042252363    9.00368081639085    9.81019751955064
C        -5.86158163220113    7.82582822989350    8.72201194093986
C        -6.84879497058306    7.10603573647394    8.03957767711446
H        -7.86284959563261    7.47857637588763    8.02621866775233
C        -6.52348514579504    5.94583233828826    7.38589389015345
C        -5.22903583199261    5.42738727726763    7.44542558874332
H        -5.00418782314447    4.49175047961072    6.95583992029938
C        -4.50624008519909    7.36722972883490    8.72558203492653
C        -4.25315228653194    6.11080066685681    8.11713204010779
H        -3.24799749846427    5.72289558178482    8.16878060376666

