53
CSD_code = WIPROF | q = 0 | S = 0 | Stoichiometry = C18H22CdN10S2 | MND = 6
Cd       11.15644247307359    5.83833410846782    8.40167456328184
S         9.07072634078747    9.58415344917057    8.16939020051525
S        12.74689233583352    1.60574930689963    8.53332360406428
C         9.59609241000367    8.25387014991574    8.85220726316630
N         9.59410344230256    5.01678456199928    6.74779674818908
N         9.10148374685652    3.81506177831382    7.01776920063170
H         8.68367191931473    3.21168247218127    6.31117078968412
N         9.84334626079361    3.99065489264454    9.20725116124350
N        11.69752830507145    8.29640650442787    6.44004603338735
H        11.41214245166468    9.11427180975771    5.90308645292462
N        11.05395530597865    7.13566527284851    6.36045440918543
C        10.03901205610505    3.40715090989915   10.38986490055116
N         8.88159990936080    1.99329551231575    8.36521529567330
N        12.60056940512777    4.35628061170095    8.34371342541460
N         9.99890691155459    7.27471770714349    9.37102486267139
N        12.75995191746537    7.59935138453313    8.38549811922794
C        10.08972322787487    6.93041053940332    5.53617225872065
N        13.10093176663670    9.75859796122600    7.46898683402230
C        12.65150154264652    3.18032622899957    8.41348426651552
C        10.70382080012645    4.22791611852120   11.44110967099655
H        11.78447357526526    4.10273329782358   11.34373627855302
H        10.40590167082392    3.90711539565229   12.43632001276871
H        10.45829240441145    5.28034768462392   11.28977232974442
C         9.29200754729886    3.24855298700144    8.25216693870314
C         9.56773745826861    7.97295019892475    4.58968060732212
H         9.32858293949095    8.87442715920568    5.15650208559434
H         8.66177627668940    7.64239822648193    4.09417283572752
H        10.31272055242826    8.22779568747805    3.83501077202262
C        12.55048921907254    8.55023414082000    7.47876189918581
C        13.57378947673342    7.89336185648715    9.39995655740988
C         8.67573644422068   -0.03214184817279    9.64772574214847
H         8.20482976887021   -0.22979963992113   10.60741000393296
H         9.56916807950955   -0.65129512648954    9.57182385345995
H         8.00323311750657   -0.29424791642781    8.83670814429561
C        13.92196931665451   10.06077973380012    8.46474234507617
C         9.07574647332716    1.39800275429977    9.53606882410797
C         9.47697825073234    5.60421512181242    5.61199440624982
C        14.19006970730924    9.13593912820336    9.47300871839180
H        14.84875095462021    9.38439757611989   10.28900201291005
C         9.65805114125474    2.08799434964902   10.59722857024046
H         9.82574892271838    1.60337962448651   11.54482142147630
C         8.76413514967172    5.01488298937941    4.42619715565563
H         9.03279992660415    3.96428620824044    4.31379610775305
H         9.03803156923711    5.52961770049663    3.51095831028223
H         7.68293892868842    5.07720614263203    4.55552091956966
C        13.75241960255990    6.84328862192117   10.44149476949312
H        12.85016839982053    6.80788768068305   11.05707614079588
H        14.60835192015424    7.05764954202589   11.07598334421218
H        13.87142893083973    5.87128001162181    9.96110322777954
C        14.52061731823322   11.42608115812092    8.46406755700152
H        14.36559606927088   11.89468780471604    7.49708686964585
H        15.58321911532489   11.37933579315000    8.69139805154119
H        14.03643724386691   12.03327467482526    9.22816312694411

