77
CSD_code = WIPWAW | q = 0 | S = 0 | Stoichiometry = C38H34N4Ni | MND = 4
Ni        2.91972791823092    8.75179397139395    9.10758038306647
N         4.37692881064886    8.56114953010620    7.91023178037934
N         4.12106885311751    7.84090245962580   10.38667417969087
C         5.38609210955974    7.79929536068930    8.45722432890399
C         6.42465039029730    7.66177442685901    7.52300828615892
H         7.34435326788733    7.12938131709556    7.67378843982041
C         6.03086976534024    8.36613646985072    6.40374009391869
H         6.58924506000038    8.50467844587113    5.49821935696926
C         4.76397457186585    8.91976678385818    6.67657618453156
C         5.19582709502698    7.41074760124778    9.78984863669755
H         5.90773364845844    6.77103569300717   10.30686019472215
C         3.99200716526661    9.81141223309505    5.82940920029981
C         4.06813545412460    9.73551252370184    4.43973285128799
H         4.70059799905816    8.98966928321082    3.98229290201849
C         3.31403917794738   10.58338661779944    3.65189317341144
H         3.37336304540730   10.50962952348012    2.57533208880302
C         2.47203311707348   11.51640079568456    4.23483015037841
H         1.87543433470588   12.17036030611871    3.61546225265873
C         2.40398349364095   11.61409910840481    5.61515653442221
H         1.75717888443543   12.34833616130175    6.07414848798703
C         3.16691338384413   10.77843031277012    6.40505459332609
H         3.13563836715214   10.86971003343409    7.48735596184438
C         3.81653656930240    7.44891384123317   11.69951434922797
C         4.56368416888896    7.90901746593213   12.78846011351024
C         4.18094256867488    7.52483878403275   14.06591525036035
H         4.74557623354338    7.88828031813128   14.91221770395269
C         3.09979976245329    6.68876935250107   14.26705767869332
H         2.81817558200232    6.40052062668397   15.26891476599164
C         2.38289262789171    6.21618687282707   13.18204788256577
H         1.54801670538127    5.54713442344953   13.33457421057296
C         2.72530053559395    6.58970442143168   11.89387005559504
C         1.97557264196722    6.06072250611613   10.70771623117105
H         2.53229670708618    5.24439369591564   10.24424311844020
H         1.84621218631428    6.84792784216259    9.94661140261408
H         0.99730256778024    5.68527006328909   10.99820909154298
C         5.76501962784276    8.78708423163752   12.60280160256397
H         6.67524394750990    8.18542396077888   12.61185405525165
H         5.83225075857911    9.50622350249043   13.41589210401449
H         5.72301374416802    9.32264509291607   11.65836917375310
N         1.42405132938619    8.83587397304401    7.89778582185452
N         1.69564863749413    9.57703774803412   10.36509120946205
C         0.39965414111802    9.57080070599707    8.45540904738034
C        -0.65559893451589    9.67524479817470    7.53515834523706
H        -1.58796950505243   10.18177000971800    7.69683486672851
C        -0.25559630700393    8.98043360855671    6.41278489996127
H        -0.82149320538270    8.82177122820053    5.51522998634705
C         1.03031590040175    8.46317394735467    6.67138780727041
C         0.59589949824004    9.96712440324091    9.78374193213335
H        -0.13048465671247   10.57993936506860   10.31233324216952
C         1.80944381617058    7.58588071922638    5.81509187445141
C         1.72166997457399    7.66717152056332    4.42646630469418
H         1.07613847464974    8.40679572793462    3.97709431711345
C         2.47892449981823    6.83102430805835    3.62902744340595
H         2.40844771577695    6.90672929469466    2.55338221457138
C         3.33480715654614    5.90424997606441    4.20166280827260
H         3.93339122322342    5.25922096806125    3.57483962068987
C         3.41392592046902    5.80111253897983    5.58114101210335
H         4.07306486971358    5.07330489004689    6.03228403622000
C         2.64888125029971    6.62562839794818    6.38081725455083
H         2.69073807269159    6.53315526545491    7.46093425307677
C         1.99412291634963    9.96469509102759   11.68040087897208
C         1.23925975730285    9.50336940487198   12.76417983451253
C         1.61209531069458    9.88866564733397   14.04434819642142
H         1.04173984170364    9.52395748203107   14.88616334575369
C         2.69035411466914   10.72602804067713   14.25419971812147
H         2.96361169260395   11.01478443273829   15.25813351334111
C         3.41608373252570   11.19821310936850   13.17486163460877
H         4.24963074127410   11.86735742461896   13.33386462293450
C         3.08419644505860   10.82351559852171   11.88450961192108
C         3.84431783095166   11.35449395489158   10.70527416165521
H         3.29357571252896   12.17468243048956   10.24093337661453
H         3.98017730931313   10.56803234572608    9.94210799742155
H         4.82183290273136   11.72570826338995   11.00411801273938
C         0.04235945073275    8.62025663723615   12.57432718601959
H        -0.87118733331664    9.21681564579182   12.58488388355778
H        -0.02122485159020    7.89904893468265   13.38586332444153
H         0.08756170651210    8.08626620205144   11.62924355218141

