96
CSD_code = WIPWEA | q = 0 | S = 0 | Stoichiometry = C47H45N2NiP | MND = 4
Ni        4.63013222662521    3.59682622651302    8.66939730438559
P         2.56223501240755    2.94341612981361    8.51241024238630
N         4.61153063986055    4.47663646468428   10.37520925907292
N         6.52717501545111    3.06436011350184    9.24113540304326
C         5.63671653545961    4.02043925155822   11.16626415377141
C         5.50083977562129    4.55301778375495   12.46112379567613
H         6.15710284947651    4.37247825674756   13.29176245196216
C         4.37629629569763    5.35231343125943   12.43425674107461
H         3.98618980979668    5.94303812224125   13.24121773380655
C         3.86098582208947    5.29952792878959   11.12181291446696
C         6.66303751037942    3.31602910631215   10.51095307645812
H         7.58844265620192    3.07934218657539   11.03590706759682
C         2.78296492588813    6.07788292049071   10.54348031412749
C         1.75914431911577    6.61797010457803   11.32150286089839
H         1.74176291365673    6.42723687165759   12.38395995368847
C         0.76248374820250    7.37543261590983   10.73973518612101
H        -0.03095237957924    7.77993882835768   11.35197022615930
C         0.77779120857734    7.62749025880267    9.37740072699947
H         0.00394049554396    8.23299436375631    8.92825796558210
C         1.79876378281382    7.11129461454593    8.59564111368513
H         1.83027793183789    7.33709651749313    7.53777515681316
C         2.78609866387148    6.33539562620213    9.16979071934330
H         3.60231052337485    5.94275650190440    8.56340020630039
C         7.59162534270894    2.56926384895790    8.47429142584152
C         8.12424477655690    1.28751402023769    8.66324101418354
C         9.15373786322388    0.87034677341623    7.82974629148727
H         9.58505346589640   -0.11008958735063    7.96556040395063
C         9.64543901836549    1.68826000651451    6.83334432359217
H        10.44631400826718    1.34240783409399    6.19620296166104
C         9.12215910102518    2.95686165725016    6.66062759677139
H         9.52723614087322    3.59360100871083    5.89049424478761
C         8.10018577338581    3.41613520084469    7.47230279792316
C         7.62916210978825    0.36089649425032    9.75195640453208
H         6.74471887784179    0.80254003687081   10.22200357195496
C         7.57139573356540    4.82670366127920    7.36326453533459
H         6.51004509727339    4.81670543752151    7.67384384637427
C         7.22969615613533   -1.00692825564272    9.19415470938275
H         6.45676675871955   -0.90384844352840    8.43586181552457
H         6.84842664333775   -1.63798581735581    9.99488003218402
H         8.08081814488117   -1.51339247582331    8.74707017792025
C         8.70541297373536    0.19330965042525   10.82934219050643
H         9.59216364657684   -0.27943915922653   10.41374747880410
H         8.33315672250700   -0.42642060263653   11.64286776144251
H         8.99860362733857    1.15795320680182   11.23835066886475
C         8.32938230517370    5.73007650120678    8.34162841483965
H         8.20184128864384    5.38397684367040    9.36509799754567
H         7.95816528193652    6.75083527525167    8.27748432659838
H         9.39273378023978    5.73098310164197    8.10774523403644
C         7.64200794006873    5.39596832193796    5.94914185117963
H         8.66783572386172    5.62155707420251    5.66605932738614
H         7.07214626787939    6.32157736214357    5.89665516073734
H         7.22311438532587    4.69190328027710    5.23400618349964
C         4.79078205816533    2.85051776787514    6.97456821607240
C         5.23366787028584    1.59117446318242    6.58733147269159
H         5.41845227070129    0.81885484445315    7.32080449350482
C         5.45364533201162    1.30582651466988    5.24864748181770
H         5.80807604006782    0.32428286583036    4.96624309671928
C         5.21955850065113    2.26281204418586    4.27876482479026
H         5.38625101575155    2.03318740756647    3.23622137268201
C         4.76222044894914    3.51561676808169    4.64943742457277
H         4.56585124381293    4.26801550490759    3.89806996579345
C         4.54161813763287    3.80251066058217    5.98481014711643
H         4.16062911418610    4.78669249162334    6.25069622377283
C         2.50165019094192    1.17082208506724    8.93268426304137
C         1.32718332231633    0.43508013414335    8.80938409321646
H         0.44396312741304    0.89988114076773    8.39275175720651
C         1.29539878471341   -0.88397611774622    9.22039826038421
H         0.38643737331414   -1.45841303008029    9.11588304949599
C         2.42334298868574   -1.46790571616996    9.77694674286221
H         2.39133924612809   -2.49746624073752   10.10199062718895
C         3.58605231749257   -0.73096022058600    9.92473568454551
H         4.45811883568480   -1.18238436258780   10.37294735674435
C         3.62414474459524    0.58530328174816    9.50065245617214
H         4.52272620796652    1.18685536008057    9.60637102287511
C         1.74015985464319    3.02857885056039    6.89179741782282
C         1.72382533384109    1.93772646176627    6.02876336694582
H         2.13536505307313    0.99143021698569    6.34868918091452
C         1.19936942063278    2.06602986733598    4.75594702269091
H         1.18970380487046    1.21322230500175    4.09316029174646
C         0.69783537475268    3.28311702090892    4.32566948480472
H         0.28949038934047    3.37945501189653    3.33047707780182
C         0.73709644645362    4.38072964497650    5.16924258124067
H         0.36411001943646    5.33691872223820    4.83109389520077
C         1.26610142345122    4.25770387755432    6.44067283147175
H         1.32826411667110    5.11887843143268    7.09053092746204
C         1.28699157284153    3.44281385705511    9.72937301981715
C         1.62001053084105    3.20389504384738   11.06132196494972
H         2.58318298989315    2.77046321705988   11.29685504026448
C         0.73373757283757    3.51428630455325   12.07223587443649
H         1.00350680926518    3.32706742741999   13.10131585410192
C        -0.49783339472057    4.06990509953491   11.76402409587333
H        -1.19140391178154    4.32186717565502   12.55266879203550
C        -0.83902974005418    4.29614412842246   10.44267434570630
H        -1.80225057594899    4.71992280066143   10.19821080542552
C         0.04554389772853    3.98157542765249    9.42488359889013
H        -0.24374539705758    4.14985497922760    8.39861517483852

