123
CSD_code = WIPXEB | q = 0 | S = 0 | Stoichiometry = C56H63N2NiP | MND = 4
Ni        0.77843820052234   -3.97854406701405   13.49909900659363
P        -0.00030042132148   -5.17112634774731   15.17795356285893
N        -0.00627470462491   -2.13332910425524   12.82525570063802
N        -0.25286897691589   -4.69784209998624   11.98024142061291
C         3.15288142488452   -3.82130287193101   14.84285447495391
H         3.35862631386018   -4.75458301286052   14.32863767355219
C        -1.07946567784452   -3.71593292828989   11.47254070904781
C        -0.90602010352567   -2.39884879828306   11.92550921530598
H        -1.48683711524495   -1.59865658194372   11.46417031968878
C         1.89513368202107   -3.22335585613793   14.77857414245353
C         0.87856045135952   -6.72088689387893   15.55391436459030
C        -0.48101291358890   -5.80581334035306   11.26448998847851
C         0.35455251348685   -7.01813274966721   11.32082475307403
C         1.66333069497414   -6.94592611850027   10.82059511990775
C        -0.14972285268366   -8.24069602627323   11.77210902013303
C        -1.74916124679014   -5.69899447839663   15.04215730448350
C         1.60173582472981   -7.29961162451483   14.51769681202879
H         1.63656215491870   -6.80036524562625   13.55808330373316
C         0.20593705093484   -0.80306391711290   13.21141053196035
C         1.65284544472913   -2.09078676927608   15.54791592462410
H         0.67045628562328   -1.64327211793614   15.57994235111070
C         2.25671177194258   -8.50264596237985   14.70514884346010
H         2.80404138953806   -8.94639865370467   13.88824138805759
C         2.21506056209707   -5.63291136135180   10.30695395601233
H         1.37297671275580   -5.02023909508276    9.96949598929990
C        -1.86288295387758   -4.24609540873167   10.43628076891905
H        -2.59324521824634   -3.71207548773047    9.85783758605024
C        -0.77120628013659   -0.08662683206301   13.91837696334017
C         0.65742967591261   -9.36672188260924   11.71125506545255
H         0.26784523942692  -10.31904666269115   12.04006313555483
C         1.44167848002170   -0.21147855287932   12.90254509359231
C         2.44805930611506   -8.08847001157607   10.80259837802822
H         3.45573342847319   -8.02818530868333   10.42526650908099
C         1.95877667581353   -9.31047049913099   11.23686834749146
C         2.77446169368272  -10.57869541749154   11.14025399963338
H         2.35111607612650  -11.30562980118655   11.84398961503460
C        -2.58900659261839   -4.96753638554903   14.21019980653971
H        -2.18022177858906   -4.15008830792638   13.63423275320367
C        -0.06517525161372   -4.37788537570640   16.82199044193318
C         2.47255929698163   -1.01914003378224   12.15289421829759
H         2.30392954215894   -2.07568347606600   12.40807156820293
C        -1.48288991555403   -5.56708100755003   10.30562342017976
H        -1.84256909324676   -6.27982027920149    9.58789921988038
C        -3.62148886766663   -7.05490416288938   15.69435905318486
H        -4.02501457674098   -7.86841249070637   16.28033410720032
C        -2.27720925131566   -6.74308615735991   15.79225051626177
H        -1.64169708337508   -7.32070971864002   16.44632318246770
C         0.83807495155425   -7.35103390713056   16.79487009841315
H         0.30919076135929   -6.89553132836555   17.62070432211440
C        -0.51188826762078    1.23539397155728   14.25168648618139
H        -1.25971586280809    1.80865466712966   14.77924631632601
C         0.68651812928672    1.83464656136969   13.91763618320228
H         0.86457911804838    2.86815592403596   14.17718594536550
C         2.67088377448327   -1.51567714670126   16.29019827676302
H         2.46789222855517   -0.62360584102610   16.86550030659702
C        -3.93100565343361   -5.28503523056702   14.10873579646710
H        -4.56996909166734   -4.71529965158083   13.45009422844579
C         1.66156885644945    1.10804123393689   13.25872422335919
H         2.59867073397909    1.58261844439398   13.01362477945405
C         3.93319330814437   -2.08193833391910   16.30364914803359
H         4.72597440684275   -1.63242319808596   16.88407973650346
C        -1.55764714451381   -8.34669016799534   12.30846284628901
H        -1.92227777869126   -7.33399375247459   12.51301701973493
C         2.19784954767903   -9.13524309622306   15.93499413394313
H         2.70448779444045  -10.07719570632743   16.08549754568371
C        -1.21793951028188   -3.74333851362640   17.26873955011117
H        -2.11134326809219   -3.76058559774407   16.66092499066323
C        -2.06850617110993   -0.73325053153246   14.35266982152153
H        -2.01162518221485   -1.80590358415668   14.13980895907395
C         1.49422783085650   -8.55449837830450   16.97865468672886
H         1.45675201087370   -9.04243087080951   17.94205435146010
C         1.08515891376186   -4.32791193373828   17.60636868068552
H         1.99216535282296   -4.79997696959995   17.25491800306043
C         3.16256335627606   -5.80200751876681    9.11798548340603
H         4.12115491784491   -6.21415821145642    9.42520842770568
H         3.34969085306207   -4.83311747513188    8.65901606318304
H         2.72274300929742   -6.45691839446496    8.36911020719164
C         4.16838651042833   -3.24228773049599   15.58814980295804
H         5.14246432099791   -3.71090428812891   15.61651646957017
C         1.07278276884082   -3.67552268599559   18.82340424567795
H         1.96938264569518   -3.64592577009035   19.42490391135966
C        -2.47356174043632   -8.98957996409518   11.26406552917364
H        -2.47989544253196   -8.40458100023540   10.34846138233183
H        -3.49189331993944   -9.04973058154930   11.64285573546220
H        -2.13139982756361   -9.99461089675600   11.02523412588376
C         3.90758105846045   -0.67201912595865   12.54098648135064
H         4.19891887888536    0.30343776819772   12.15817824599811
H         4.59026452022495   -1.41082952022309   12.12559570085824
H         4.01730200475424   -0.67598324470711   13.62296722189052
C        -4.44960415934593   -6.33269361026982   14.85053721474041
H        -5.49686400816751   -6.58601542177511   14.77387481193665
C        -1.61190728319880   -9.14548399193339   13.61133266929419
H        -1.40474606867264  -10.19836392586388   13.43627167708071
H        -2.60318974059763   -9.06636585129499   14.05193725666196
H        -0.88354300162290   -8.76428062316677   14.32365850211840
C        -1.22604189779650   -3.08744710471939   18.48768945819684
H        -2.12749503574580   -2.59783776438397   18.82661802226926
C         2.63894387284908  -11.14924316956709    9.72477828537832
H         3.03340587109267  -10.44407311093649    8.99613760168121
H         1.59338254234254  -11.33451301513768    9.48870605820765
H         3.18748493942817  -12.08476655134568    9.63548606747969
C        -2.28813891824384   -0.57949680804936   15.85995057756904
H        -1.43335624430864   -0.96191173720499   16.41411936275384
H        -3.17090215405539   -1.13927707984969   16.16367174897808
H        -2.43778365352530    0.46204196154960   16.13273229964511
C         2.26159067696131   -0.85743580313884   10.64477646218467
H         2.35685527860883    0.18853189649911   10.35849152957467
H         1.27126207839432   -1.20502874731815   10.35852303880861
H         3.00089771884211   -1.43518351572438   10.09336745844234
C        -0.08340943777641   -3.05344638910041   19.26774462378159
H        -0.09139720903587   -2.54028496284336   20.21798001931407
C         4.25004013560863  -10.38423901393620   11.48944801213406
H         4.75815592139778   -9.79413942680037   10.73080020481214
H         4.74683107357182  -11.35061513145248   11.54865233446035
H         4.36230688880631   -9.88319032425610   12.44892196659220
C         2.92312328216790   -4.88875642359473   11.44123513336664
H         2.18766788465049   -4.60457296066681   12.22353271204003
H         3.39113731709851   -3.97996881954855   11.06849508405449
H         3.68945174614073   -5.51763910322354   11.89283949502810
C        -3.25655170479061   -0.14758426469234   13.58576662330252
H        -3.34776392103933    0.91883068527486   13.77971489963263
H        -4.18022387326168   -0.63441691872244   13.89296446840913
H        -3.13484223731369   -0.28733211280620   12.51392922372020

