131
CSD_code = WIPXOL | q = 1 | S = 0 | Stoichiometry = C58H66IrN6(1+) | MND = 6
Ir        2.53279321699369   15.39040268990443    4.66198454797415
N         1.99130912247408   15.52370902054420    6.62395965808607
N         3.06382452270867   15.00830079311703    2.72909118844634
N         1.36344989271904   17.17420317939512    4.34129130493710
N         4.04674716284315   16.93284190043694    4.60963473749688
C         3.79389807154473   13.82504655111330    4.92484573223615
C         0.97831771830400   14.09014521422094    4.70854738721342
N         4.22960406942147   13.84506302625570    1.23621172482334
C         2.74302400489509   15.49296308152418    1.49016412055824
N         0.72261100956496   14.87280622340253    8.32921356592841
C         2.45036443009524   16.16254545836970    7.74378729051655
C         3.53627550186184   18.15984803928290    4.38318945269425
C         0.95294994753058   14.76674642512658    6.99584176761193
C         2.11532469186550   18.29073694458528    4.26453704043643
C         4.44174269010548   13.36951916710735    3.74858001859796
C         3.96008877619192   14.03117257997724    2.55390808193421
C         1.86880514715293   16.49619926053832    1.08120735891288
H         1.27691190079642   17.04287753841101    1.79586659902406
C         0.44065662448717   13.39066311862808    3.63496000171349
H         0.92198550136131   13.43239977303801    2.66837983526170
C         3.48820218157462   14.76875249018057    0.53519976198154
C         3.49831399871874   17.05717073582527    7.94155511850321
H         4.13266907289893   17.35886521675860    7.12503185972486
C         1.54943281235641   19.56897908097786    4.06213477222910
C         1.64367516278977   15.76398948086795    8.83096511365077
C         4.17294272195741   13.24793543612342    6.13103412678974
H         3.70244294603964   13.56191502070109    7.05162815501073
C         0.05283153769983   17.28439453881344    4.24557091635561
H        -0.50972709351738   16.36272281639839    4.30414159479070
C         5.35439344178193   16.79818637119956    4.71024842946746
H         5.71846874334935   15.79792041169701    4.90090944865852
C        -0.71371279469976   12.63420644604444    3.76646564112811
H        -1.10752942887073   12.10104197360813    2.91392833294775
C         0.30760122606859   13.99566693693977    5.95406913559128
C         5.79512644130953   11.85524968771287    5.03760122326279
H         6.57078915626402   11.10641553593138    5.08592454948361
C         3.70479389440564   17.53438000387939    9.21771928040545
H         4.51082528708646   18.22820812258084    9.40052530881892
C         3.38928085870718   15.03969616740225   -0.82244288681434
H         3.96296914985620   14.49487858791976   -1.55525935301713
C         2.52466702912802   16.04381205703769   -1.20585692918799
H         2.42201552436891   16.28316480812985   -2.25255804997741
C         2.40253784954812   20.70504021519633    3.96179673647577
H         1.94605910396555   21.67047965153915    3.80469234387881
C         5.12265123193741   12.90253786784720    0.60970265524194
H         4.75599779454539   12.72117191079063   -0.40339244836900
H         5.07919192540970   11.95508614147240    1.15011359763565
C         5.44555367482980   12.40244523172883    3.81877736363764
H         5.97637134058071   12.07647504487402    2.94088155183478
C         1.77461342817154   16.75693956930187   -0.26861151524551
H         1.10442325103279   17.52897166076349   -0.61403357805186
C         4.35229958052148   19.30729487071576    4.27057437909987
C         3.74751498423781   20.57875131849796    4.05594377023512
H         4.39235372266756   21.44050145067173    3.97406684744690
C         2.89669251826260   17.14085628067664   10.28628211201876
H         3.09285323911560   17.54123753821687   11.26842751203798
C        -1.36938338806921   12.57011077716760    4.98435007519016
H        -2.27785318777949   11.99607052078881    5.08430509807200
C         6.55595654520861   13.43850803207160    0.55132513981275
H         6.57274674132031   14.34239641237797   -0.06196024797732
H         6.88057433836903   13.71708417653792    1.55682935767348
C         1.85674108335760   16.25136989134950   10.11292559762240
H         1.23781208013723   15.95500017145524   10.94482479701673
C         5.15352025140559   12.27027021072134    6.19220219565432
H         5.42460611435360   11.83853719800095    7.14418768497059
C         5.74129416288320   19.13319951853812    4.38338575521801
H         6.39478856639135   19.98863749761730    4.30230898764402
C         0.15125777078046   19.65481974719876    3.96165068429946
H        -0.31485207424970   20.61608573905107    3.80657310941043
C        -0.86426926708323   13.24841751646457    6.07604327073548
H        -1.40594491579193   13.19969116231600    7.00409270879742
C         6.24115549734836   17.87019406834688    4.59937164519788
H         7.30117395681986   17.69732644543808    4.69209659029752
C        -0.59740069152871   18.50522676787691    4.06013693781372
H        -1.67267842583072   18.53098348305247    3.98778661912695
C        13.69200678994370    9.34488845561141   -1.06171838971387
H        14.61593601213718    9.91998414274011   -1.15478628421868
H        13.39632796428988    9.03073420816032   -2.06526129509503
C         9.92122490713801   11.90367415075573   -0.64973527716965
H         9.89474191265905   11.01900336692947   -0.01193520807702
H         9.60249678075940   11.60362108385824   -1.65041159319150
C         8.94701351618298   12.94207858273755   -0.09858791032013
H         9.26932976550709   13.24175290389646    0.90159561371308
H         8.96889369460236   13.83146599020027   -0.73257988084703
C        11.34657120621992   12.44791621418709   -0.71803702997314
H        11.68120201511872   12.71148114602843    0.28817311995290
H        11.34232211474590   13.36403120484734   -1.31410077228618
C        12.60081982383810   10.23501220020436   -0.47117998693108
H        12.90202423422405   10.55606421097842    0.52907959748708
H        11.68472172499329    9.64976603254006   -0.37200872519631
C        13.94743886612011    8.11418402893696   -0.20041288903638
H        14.26112608369167    8.40637162676444    0.79954522854643
H        14.72829311340677    7.49678477865021   -0.63744295111681
H        13.04422244259700    7.51377802550491   -0.11372763025506
C        -0.27412683761629   14.22287288509084    9.14359549931688
H         0.13221401845787   14.13160089636364   10.15420527753938
H        -0.43898591058798   13.21568589683898    8.76080890380043
C         7.51878805326796   12.40621567912823   -0.02941897308655
H         7.50230438589430   11.50510414519539    0.58815843911220
H         7.18962718435937   12.12436450340195   -1.03172976564595
C        12.34077805691589   11.46546891443568   -1.33762642014074
H        13.28841259596988   11.98570533328198   -1.49610543816647
H        11.97319730286944   11.14845399486283   -2.31625879440909
C        -1.57407626268512   15.03235672249767    9.18604541483875
H        -1.94941613146579   15.17180496322923    8.17102129122333
H        -1.34615510095685   16.02268557923515    9.58775106468228
C        -7.72244091003900    8.06387372269734    7.83913141351817
H        -8.27937329732864    8.40691271805628    6.96988740306655
H        -8.39594493356484    7.49411740566485    8.47445578129354
H        -6.93007882570133    7.40122080600985    7.49768353518419
C        -3.25303281243995   13.09867153683289    9.47766451480092
H        -3.83833738193498   12.61957006617952   10.26298905383927
H        -2.46392532656019   12.39912893924743    9.19369702204107
C        -4.16286561786547   13.36021775126604    8.27761826337927
H        -3.62911194494045   13.94924461398028    7.52809081549263
H        -5.02267899838642   13.94961784752794    8.60300168745351
C        -7.13916186722055    9.24720032258340    8.60105762200158
H        -7.95091155625423    9.88946615958456    8.94991409413552
H        -6.60376641255073    8.88393521500628    9.48131643160865
C        -6.18674403849390   10.06654856695938    7.73366944469784
H        -5.36985737763778    9.42593754745275    7.39203231691960
H        -6.72152940316071   10.41941397954583    6.84849419681743
C        -4.65614071986506   12.07471617674979    7.61198156704352
H        -3.79785974673103   11.45334128889980    7.34245145741117
H        -5.17347564130099   12.34047200641344    6.68665026675538
C        -5.60965174742676   11.26325209182413    8.48607609502772
H        -5.08570187501708   10.90363977047624    9.37337119656412
H        -6.42729499724549   11.90640954521562    8.81954478691813
C        -2.64322073010436   14.37569922170478   10.06093524936742
H        -2.20349730372446   14.14695685608311   11.03439724316280
H        -3.44558553229366   15.09716397681735   10.22588000775377

