102
CSD_code = WIPXAX | q = 0 | S = 0 | Stoichiometry = C49H43F6N2NiP | MND = 4
Ni        4.21635403566483    0.67168895474990   13.72112363785292
P         4.40359174365019    2.84403037752003   13.86058754165492
F        -3.12651770692310    3.97449055021361   14.75163674489282
F        -0.78585405470293    2.03766065131556   10.45166073599043
F         0.50300462215796    3.75550285698114   10.46009303505804
F         1.34402463813691    1.77904295849351   10.54493459854532
N         2.82483488733717    0.32478440521044   15.01347344222152
N         4.95793851146994   -1.11611497233853   14.42243673503589
C         3.24577495976183   -0.61249754942602   15.91510650859014
C         2.33686140881733   -0.68285021086993   16.98675098528322
H         2.41051261837149   -1.33232149581291   17.83795433013612
C         1.34661360867851    0.23859990932886   16.71465742832434
H         0.47076557968785    0.43650068114328   17.30184888091384
C         1.66621150256877    0.83026067784680   15.47368432818208
C         4.35101910362803   -1.40679194987702   15.52982512412968
H         4.60938563095126   -2.29615516105549   16.10442419879809
C         0.87129625531014    1.73396903916652   14.67931636934277
C        -0.09968401283449    2.56106621763476   15.25031258962755
H        -0.24795360765266    2.55426844397841   16.31811812896351
C        -0.84822638124034    3.40558483654742   14.45280552266251
C        -0.69703129459240    3.41984285532587   13.07166993409424
H        -1.30381994471184    4.06465263843553   12.45557322189479
C         0.24941394541075    2.57562216967067   12.50293867915688
C         1.04044251902794    1.75893657464140   13.28878453990849
H         1.77938647975762    1.10252177020290   12.83759533436964
C         0.33579375388024    2.53437559003326   11.00324677580250
C         5.91092297999194   -1.97008943081793   13.84927497909620
C         5.57936914006744   -2.53203585425824   12.60257162412931
C         6.50070222303662   -3.34755467890708   11.96994427944555
H         6.26263140981855   -3.79193911388629   11.01710782751221
C         7.72672723909180   -3.61196174490917   12.55315203683365
H         8.43638002346558   -4.25310980749908   12.05140409787843
C         8.03756928925339   -3.06811218266261   13.78253016446165
H         8.99115804888877   -3.29795191610369   14.23309732316156
C         7.14523005350965   -2.24111050028106   14.45255810964822
C         4.20204241825304   -2.29328440698567   12.03048982633208
H         3.86962298836553   -1.28696445139671   12.35086874703822
C         7.52519800794817   -1.68029901450260   15.80533997560872
H         6.76258897748443   -0.96216462079821   16.12309211111131
C         4.15982865471779   -2.33687308540764   10.50576311450088
H         3.20414146148760   -1.95447229605955   10.15364596653317
H         4.95215713433944   -1.72253439701448   10.08497345474432
H         4.26650156231250   -3.35505530374152   10.13831918816204
C         3.22164683147873   -3.31226723637168   12.62098061793626
H         2.22316212338194   -3.14918809681060   12.22110678953032
H         3.53492215768728   -4.32438515324667   12.37094129909198
H         3.17516740616753   -3.22437610317193   13.70449721867287
C         8.86712124972224   -0.94619204019202   15.75869552907213
H         9.09650601110497   -0.52844637443752   16.73712096300988
H         9.67490265423846   -1.61955790295173   15.48573499883633
H         8.83878684042614   -0.13545051630380   15.03424985196935
C         7.57885591265543   -2.80613601938966   16.84313291318756
H         6.63183188585458   -3.34014862828354   16.88649782966785
H         8.35708342324836   -3.52211941111465   16.59040820713630
H         7.79101567759635   -2.40059602516922   17.83040399139283
C         5.51999543008085    0.85312143023694   12.41348586390639
C         4.93039554606472    0.97855341904261   11.15633305146198
H         3.85403711274924    1.10099779386846   11.05557829762397
C         5.70542560837115    0.95893277937532   10.00987528263909
H         5.23265176308304    1.05417077164515    9.04288976593485
C         7.08054234801591    0.83313388505701   10.10747557903384
H         7.68815370081028    0.82594558434253    9.21439643303785
C         7.67333487821894    0.72630611397113   11.35179564004375
H         8.74682310517817    0.63171052532753   11.43462063178133
C         6.90123019051309    0.74489825593737   12.50356495772883
H         7.39249934556197    0.66937745002719   13.46329409436141
C         4.75436454799197    3.78335056522028   12.34482634137529
C         3.71399011167429    3.99686554989512   11.44529459985791
H         2.71920763351457    3.66778147797164   11.70582065146371
C         3.94785007690613    4.60737402491648   10.22824232178512
H         3.12800270431419    4.77337495901881    9.54558608193180
C         5.23458359895465    4.98996408015566    9.88730486758102
H         5.42372080258786    5.46184713706992    8.93471632877522
C         6.28085050580759    4.75157728753733   10.76308344799149
H         7.28761255812871    5.03185077116447   10.49021640857863
C         6.04739262394197    4.14597804972705   11.98421906277161
H         6.87171396822090    3.94282467768993   12.65231173569918
C         5.82118005795348    3.21017112787189   14.94418277278289
C         6.24756556617832    4.51719760406024   15.15923989278266
H         5.77155968136841    5.33108791358190   14.62963259716895
C         7.27512737807444    4.76677896261176   16.04907790820202
H         7.61249938915984    5.78005698123830   16.21060195939638
C         7.86636288788115    3.72143591349053   16.74263108574232
H         8.66503471224586    3.92312711663154   17.44102967262836
C         7.42826328378356    2.42245554188429   16.54840067555834
H         7.87885788820958    1.61178350058726   17.10068775076218
C         6.40817645988292    2.16893044036568   15.64902998637510
H         6.04232768001543    1.16007177739331   15.48000046608957
C         3.19382174778802    3.86234123821523   14.78830761592832
C         3.01303432473006    3.49930408609373   16.12218146542072
H         3.56971247886477    2.66276705840455   16.52395849687702
C         2.13980054038745    4.20147124646261   16.92808972217270
H         2.00919416813915    3.91262235184223   17.96049880972467
C         1.43097909868642    5.27442559721582   16.41029006295749
H         0.73995001971695    5.81981236902760   17.03498055136285
C         1.61371746106549    5.64583568223637   15.08981027144397
H         1.06865658550506    6.48560001556500   14.68490478432247
C         2.49291777532963    4.94682731414922   14.27897149042467
H         2.63668534737657    5.26432132212181   13.25740101448539
F        -1.80497936804569    4.38524125374046   16.39567597323551
C        -1.86527817110216    4.32960120930580   15.05851214222706
F        -1.72155774108581    5.59470128031336   14.62280899941992

