26
CSD_code = WIPYOM | q = -1 | S = 0 | Stoichiometry = C12H9N4Pt(1-) | MND = 4
Pt        5.23000737480453    1.38258732636079    3.62789660218712
N         2.63170918849775    0.04099164686530    4.66683648952851
N         6.87714232741242    0.52266126347696    6.14694627657288
N         8.11156771469226    2.61807029333099    2.91992542568470
N         6.48691599472821    2.87979816483115    1.53623661048788
C         3.61574624323814    0.53098470226350    4.30799132602336
C         6.20892273455096    0.80743882325767    5.24342945321182
C         6.80420150080286    2.33154071384142    2.73649048043608
C         4.30392396998271    2.03324890001875    1.90362862089859
C         2.99663053500898    1.89856444342103    1.42999893520139
C         2.58635325339003    2.42904327285035    0.21537717009814
C         3.47472992519834    3.12469782299098   -0.58518738068509
C         4.78413701245061    3.28905718413926   -0.16451354885060
C         5.16700171604671    2.74882532112048    1.05085225346490
C         7.57051871650234    3.49456011836785    0.98211280589656
C         8.59641673503962    3.33071997505838    1.85350674806622
C         8.91699060302467    2.25202297164825    4.05099609463870
H         2.27451089374939    1.36121636012703    2.03043917166909
H         1.56149282175645    2.29981991087387   -0.11270660384770
H         3.15643266641560    3.54001772300297   -1.53378959327191
H         5.48481137343529    3.83336378173936   -0.78689618903731
H         7.55056201714844    3.99492640978849    0.03513188741208
H         9.61582152045195    3.65873306061591    1.79971625849405
H         9.75491560840750    1.62758045026897    3.73129496654675
H         9.30980239787099    3.14700322878782    4.53980457972029
H         8.30363515538734    1.69482613095729    4.75988115945271

