32
CSD_code = WIPYUS | q = -1 | S = 0 | Stoichiometry = C16H11N4Pt(1-) | MND = 4
Pt       16.38780759277685    0.65776234943532    2.78394101897975
N        15.98269575879782   -0.53009252976514    5.62400973685060
N        19.35463345329612   -0.35386647824938    2.69919463454664
N        17.05469097637098    1.24895299045257   -0.25779843678539
N        15.18281541186876    2.00934744911835    0.56216758764328
C        16.16283319337534   -0.10344011125241    4.56498582822768
C        18.25412044800727   -0.00033991810758    2.77902327786766
C        16.35118645819233    1.38512599322584    0.89367348274346
C        14.52199555240485    1.52092103910983    2.78419810964275
C        13.60619874056388    1.71415858793681    3.82033243047500
C        12.51555915964459    2.56317794744051    3.69894407524047
C        12.32512641346276    3.29367971534953    2.54077343428709
C        13.20760358311692    3.14264010453826    1.48278725439956
C        14.25471364446843    2.24662279660828    1.60563792595606
C        15.12176476192832    2.23986419161626   -0.78790334390645
C        16.34357940729391    1.76143710454524   -1.31223459063485
C        16.64302804746524    1.83506991275531   -2.66252442581963
C        15.68657745494954    2.38124408135896   -3.49896421920904
C        14.46423433344700    2.81806102658986   -2.99845817148222
C        14.15994405980547    2.75195727194874   -1.65060445825181
C        18.36505043218869    0.67974649954506   -0.40296130032381
H        13.74375717768693    1.17762815446494    4.74995850635639
H        11.81967248049812    2.67288349802584    4.52225341624646
H        11.49863498885634    3.98844460452927    2.45461871313691
H        13.08436929786294    3.75126840057376    0.59818326517457
H        17.58411044131471    1.47233412205724   -3.04749161457884
H        15.88447841158759    2.45689961509868   -4.55860035588441
H        13.72767415595206    3.21599848679319   -3.68214405075137
H        13.19160120666748    3.07111457807131   -1.30271520824771
H        19.06037343006666    1.43155985853448   -0.78578581467338
H        18.71260579258482    0.32816668540368    0.56836686185555
H        18.33256370710097   -0.16152785828735   -1.09946350641507

