32
CSD_code = WIPZED | q = -1 | S = 0 | Stoichiometry = C16H11N4Pt(1-) | MND = 4
Pt        2.92813812602735   12.12048221076896    7.19588687889795
N         0.25736996852878   11.53283003780585    8.66321410368023
N         4.19675869243027   13.53312404594480    9.67963068653808
N         5.48832581952282   13.42459214521380    5.82044439064663
N         4.38797191136933   11.91757219395208    4.74533665553397
C         1.26578589185318   11.76952587865752    8.15008414454220
C         3.66935944203751   12.98282628443783    8.80718002908097
C         4.50626410912102   12.50886013199954    5.96198535722602
C         2.32475035048830   11.09381559214988    5.51295555639929
C         1.17527330014054   10.30450526967607    5.27639123838755
C         1.04194637443847    9.52168192508380    4.16134957724961
C         2.11573784055991    9.34149622392831    3.26855401599873
C         3.33044542594488   10.05275866654183    3.49747275605682
C         3.33575174816263   10.98856305642756    4.55733464479009
C         5.25288275962081   12.48205752188815    3.85203933229774
C         5.95470227493385   13.42288864595899    4.53115316565767
C         2.03880656254906    8.44607741590809    2.18407041007779
C         3.12197552885463    8.20276197142013    1.38660546364625
C         4.34667318995908    8.82155625293715    1.67367137636293
C         4.44866958499435    9.71743580368661    2.70204568985516
C         6.01114749312649   14.28036209155295    6.84781848794857
H         0.35792339081630   10.35993830106032    5.98303438139498
H         0.11841094437988    8.98863802902932    3.96777220693827
H         5.28231956310932   12.23154849258021    2.81178120536909
H         6.73173817175275   14.08402931502595    4.20161901487521
H         1.10110226811478    7.93512845661542    2.00583776294250
H         3.05302237177049    7.51234314392089    0.55618750260202
H         5.21897865698607    8.57580054257433    1.08129260617670
H         5.41818142707098   10.13288931700527    2.93797569746865
H         7.06798863663886   14.06143591902372    7.02093166385727
H         5.91131827405515   15.32752217161386    6.55360117447510
H         5.45387990064439   14.11165294561296    7.76964282302374

