70
CSD_code = WIQGEL | q = 1 | S = 0 | Stoichiometry = C34H25ClN5NiO4(1+) | MND = 6
C         4.05176131416385   12.89820847791463    9.46716285076088
H         4.62084066673706   12.62551709608874   10.34601297480343
C         4.45814544852815   13.95753630101780    8.67290913222834
H         5.34230179635065   14.51696963010479    8.93209816209534
C         3.70296445215366   14.28401229378966    7.55700741843998
H         3.97875909105420   15.11567247043942    6.92751020154110
C         2.59205691434887   13.51514442548674    7.26072617321879
H         1.99332448996796   13.72967052409987    6.39081931531318
C         2.24886070137690   12.45675145460669    8.09582149895590
C         1.14199839377011   11.53084981369893    7.83871016603664
C         0.13117482323869   11.69577795756610    6.90144053933733
H         0.06235969520045   12.59417378596970    6.31082158826018
C        -0.82504269484457   10.69696542091663    6.77878700343809
H        -1.64518065919005   10.81637456159948    6.08763994783319
C        -0.71086778419246    9.54559534763690    7.53444913737810
H        -1.41380321986557    8.73540015256402    7.42679903902843
C         0.33297880236983    9.44353083296418    8.45362108641386
C         0.57904788263869    8.25632018913212    9.28426729937751
C        -0.46123291697669    7.63387745050224    9.96248160210720
H        -1.46855774298159    7.99127498130175    9.81455955187123
C        -0.19731084248760    6.60328450223188   10.84693398622072
H        -1.00823821124541    6.11877804056078   11.36907952697029
C         1.10909081443477    6.19441262842537   11.06256068779352
H         1.31704404138256    5.39539265539380   11.75781264839611
C         2.14847902949038    6.78816125582926   10.36777343683183
H         3.15925584134273    6.43247562759310   10.50295886375094
C         1.90231404591543    7.81580538966513    9.46486678605739
C         2.98303084220502    8.31634918717998    8.58845767506367
C         2.78966804923915    8.24372350409543    7.20808171260725
H         1.84842078356285    7.87019005164087    6.83183435948299
C         3.78198089622727    8.61549452023746    6.32288426318646
H         3.60714037691215    8.54908293120591    5.26014718229642
C         5.00592442119874    9.05495688498929    6.80114038228748
H         5.78969553340501    9.33837275364029    6.11614800555118
C         5.22195965123960    9.11707494323713    8.16400118911748
H         6.17351277771235    9.45766059792761    8.54601540348540
C         4.22087324221704    8.75844373858096    9.06391342852813
C         4.52330716132531    8.92248794569086   10.50147761790440
C         5.53157986199038    8.17444901154587   11.11032099081977
H         6.04311843855101    7.40692718845174   10.55128086867977
C         5.85271931110580    8.43947323960336   12.42818585916932
H         6.62747884511250    7.87860751899531   12.92820097952423
C         5.18131894427006    9.45182858492880   13.09701565031790
H         5.45125897197088    9.69978365783341   14.10965609497279
C         4.18163440244464   10.15215159350092   12.42832638168172
C         3.44860894623514   11.28223317354218   13.03770367300959
C         3.43916883095635   11.53232766229929   14.40634923330139
H         3.93187431753622   10.86475928145383   15.09397341688372
C         2.76048241371394   12.64329781392751   14.88254478618779
H         2.72722182953547   12.84604534387222   15.94212234598963
C         2.13705877550447   13.48757665560690   13.97971280058151
H         1.61527991235481   14.37149022487551   14.30642555739343
C         2.18154708247215   13.16564613886430   12.63046128153479
H         1.69844554010492   13.78660506467828   11.88979991720775
C         0.17464064177358    9.87815491797841   12.06861849426299
C        -0.93377464539413    9.50519772837722   12.86980694669040
H        -0.70163294259474    8.61651053343408   13.45510483565753
H        -1.78187917557477    9.31874168614751   12.21089949979762
H        -1.18231347701568   10.34782638646698   13.51667994200496
N         2.97345677265262   12.17208313214325    9.19762378475215
N         1.20061153275757   10.43869394092731    8.61464938588572
N         3.86840473109101    9.87381858020700   11.15655731187956
N         2.80093628870060   12.08515253091443   12.17781978800386
N         1.10452909071405   10.11436028299819   11.43637647238404
O         0.46256075191311   12.70332042302879   10.24219336158232
O        -0.82804388667853   12.33280519062314   12.13586632428644
O        -1.72592754436503   13.45432499071213   10.28231791440902
O        -1.28228384359624   11.16298974961295   10.17942860413659
Cl       -0.88348124907966   12.42413261853930   10.71613228559751
Ni        2.12456262290264   11.07241482836095   10.34361336742744

