48
CSD_code = WIQGAG | q = 0 | S = 0 | Stoichiometry = C18H20MoN2O7 | MND = 6
Mo        5.88125236017740    2.66214491632717    8.14885351669469
N         6.10962407075302    1.16521204012616    6.57715033515593
N         6.67581409048483    1.65583386463953    5.44819891806849
O         5.54035562060479    1.11903244097153    9.09624859061949
O         4.29048059211573    0.07304364088841   11.12023011392348
O         6.99636539434887    3.44509339393385    6.79680956173195
O         8.25537945195060    1.40004950249500    8.41004211337337
O         4.38947549645856    3.08292930298202    7.58708905398552
O         6.46233963282204    3.62515060084159    9.34378763075264
O         9.37989825759550    5.75885992320450    1.41574875945849
H         9.57337919324895    6.66880589557939    1.67433091420535
C         4.87634860716819    0.00279470044768    8.87222661793510
C         4.19089025184534   -0.61401545569367    9.95524724268515
C         3.50140803765755   -1.79307997018676    9.73989777342864
H         2.96479536270199   -2.27484762156955   10.54156274231928
C         3.48176404767479   -2.37989607555798    8.47364066184793
H         2.93642933030731   -3.30036096284398    8.33372216468172
C         4.13998369498715   -1.80125509161833    7.41939177273595
H         4.11860133833834   -2.25533298202840    6.44068571729351
C         4.84380813483755   -0.59534420087403    7.59522686483303
C         5.50515132179489    0.02622803523373    6.48957362408211
H         5.47400291701447   -0.47053083137571    5.51937047894737
C         7.09996405315059    2.87561612615209    5.63768784925114
C         7.69933389881732    3.61900477925367    4.52826044441826
C         8.06144462972485    4.95201134855447    4.72447169980543
H         7.88833842771484    5.40066216247387    5.69284264161363
C         8.62173459782491    5.67907427346041    3.69564035270122
H         8.89893740203180    6.71388888877101    3.84783871465383
C         8.83098783431470    5.08441483600092    2.45309677482620
C         8.46868958631836    3.75117254476738    2.25365211554008
H         8.63818274849898    3.31291261503318    1.28313968555633
C         7.90577250881887    3.02741226946554    3.28027598155826
H         7.61708968469501    1.99862013011074    3.14091071285784
C         3.62121281992469   -0.39437429369102   12.27449117908412
H         2.60141550442767   -0.71271127916893   12.02712935866909
H         3.56142857432522    0.48223321294444   12.92491388017808
C         4.38559039359017   -1.51005063890627   12.98259146485420
H         4.48826559286811   -2.38295316807831   12.34250669576508
H         3.85824567339406   -1.79680645521795   13.88818406763062
H         5.37957411064293   -1.16049695655180   13.24948135068329
C         9.00776617675299    1.98568978325694    9.47063908460495
H         8.98935753939782    3.06052679328148    9.28173194509201
H        10.04194310749518    1.61472118883098    9.40943960610134
C         8.39959915189647    1.68022887518537   10.82887653327431
H         8.39179068094876    0.60601307349354   11.01784529345166
H         7.37695769309606    2.06175666036247   10.84947627287455
H         8.97359799755726    2.16819236822219   11.61148717985420
H         8.11563240689156    0.47162579607287    8.64705394634290

