89
CSD_code = WIQPUJ | q = 0 | S = 0 | Stoichiometry = C30H52B2I2P2Pt | MND = 4
Pt        3.41089661209557    3.44477365012309    3.04706767231920
I         3.58079116598519    4.59362666773443    5.54970439858283
P         4.33660762052576    1.48635276052831    3.95848222573040
C         4.84251878522306    0.22308404476716    2.68923859723342
H         3.92913523322400   -0.34197386912797    2.48224788683946
H         5.10178133312968    0.75129493204575    1.76975751937998
C         3.42723954958625    0.34550081538192    5.09880749048158
H         2.54754941267082   -0.00704670615658    4.55732921308709
H         4.08378871965017   -0.51595431737589    5.25961166175042
C         5.83674598345295    1.74749725425544    5.01277748382155
H         5.46962232997976    2.22042933245865    5.92679469813406
H         6.22451612740729    0.76025308050749    5.27828767862690
C         5.96556107402775   -0.73872949654556    3.05519953349035
H         6.90898413024952   -0.21567682186171    3.19305293936312
H         6.09774803965316   -1.46077698181113    2.25086328926240
H         5.74055231667105   -1.29358257664925    3.96322700959012
C         3.00293110363180    0.91795875889076    6.44435391512554
H         3.86050755494665    1.14762315238285    7.07192666603560
H         2.38627612561898    0.19055370858805    6.96968155087204
H         2.42383917897719    1.82737836514908    6.32141793839906
C         6.94108100194588    2.61863487055210    4.43513449053194
H         7.36568259492197    2.18982476949288    3.53091057011183
H         7.73930443890025    2.72898460246720    5.16734462027295
H         6.56278188800317    3.61271695267297    4.20757616644626
P         2.80535706241034    5.55876490967486    2.33902318151971
C         1.17967754432574    6.12738520108904    3.02294661325787
H         0.43220724167208    5.95939588791557    2.24401912376646
H         0.93562235472889    5.46013701477208    3.85468126838238
C         2.68810508606935    5.87051783062603    0.51510584191618
H         3.70428116139851    5.77225966140892    0.12052544192741
H         2.10428692184248    5.05715198602254    0.08229133048479
C         3.99292450855292    6.88672413942417    2.82728472225428
H         3.71566075988578    7.79954741775075    2.29583227181378
H         3.88613993931315    7.06961688440755    3.89688072538185
C         1.10155173806519    7.56654627015247    3.51880206466340
H         1.74900440154900    7.72081352747462    4.37812146297075
H         0.07978152903830    7.77494595024501    3.83103148845937
H         1.36835976814902    8.27921598666132    2.74296905715924
C         2.08200533069990    7.19752645820728    0.07907135686450
H         1.05543040010152    7.29071287157730    0.42425087248415
H         2.07359821642339    7.24706060179268   -1.00847028186448
H         2.65424888467665    8.04735325860927    0.44403624139239
C         5.43700701830201    6.51574700156733    2.52398023949472
H         5.73399723375898    5.65435716064457    3.11983424981793
H         6.09852218112072    7.34182019868194    2.77926424029351
H         5.57393630937195    6.27818181757041    1.47062331951665
B         3.07197676996748    2.60564338621270    1.12714033168947
C         3.97279926168369    2.85181294783832   -0.12266307172631
C         3.41979054996406    2.76010817503767   -1.42633019854664
C         4.15484675705665    3.13158411000843   -2.54242189462703
H         3.68860103284473    3.06851050245541   -3.51623284345247
C         5.46303208639613    3.57608415701716   -2.45423779042992
C         6.03590873616403    3.61467536056607   -1.19478858138070
H         7.06573556965680    3.92994264356706   -1.09141848213248
C         5.32642150562065    3.26156068713008   -0.05788284782928
C         2.02408945212216    2.29226329583682   -1.70619045683145
H         1.33504401101961    3.13733561286691   -1.72468835268490
H         1.67483813070892    1.58571934316012   -0.96181712305254
H         1.98145181976561    1.81638735775751   -2.68401816442415
C         6.23569890737633    3.95795615481962   -3.67751666731980
H         6.64522866979040    3.06507466825418   -4.15173397853954
H         7.06358360339854    4.61689843490617   -3.42553041047094
H         5.59291762109204    4.45509942395568   -4.40112040875026
C         6.08779435635015    3.30019742308303    1.22834865396571
H         6.59470528604112    2.34740951986181    1.38255911360027
H         5.41192186245954    3.47463143695684    2.07657516575785
H         6.84876429298371    4.07719937462145    1.20848552162535
B         1.62849620466281    2.01513545094115    1.49051648350591
I        -0.11753919578748    3.23826639638887    0.98016280814391
C         1.19898399160961    0.71646367450036    2.27577192388296
C         1.38091928412416   -0.56192504798141    1.72741559974032
C         0.90259854875016   -1.68720171967247    2.38606282267317
H         1.05498152352538   -2.66009520209311    1.93817284859969
C         0.22935751623940   -1.59181727012520    3.59212235158012
C         0.06836670500648   -0.33151296784081    4.14953567725792
H        -0.43418750220259   -0.23446997614566    5.10232119122849
C         0.54621509326042    0.80732307497631    3.52015831492534
C         2.05645513744841   -0.75937769932377    0.39869871479861
H         2.48005008809201   -1.75996206779119    0.33276364827042
H         2.84902455160845   -0.03080870948011    0.23941318642299
H         1.32977222542435   -0.65752745882211   -0.40896512133882
C        -0.30324230727441   -2.80472829032577    4.29173340119163
H         0.10465539101879   -2.87436799570806    5.29994121327438
H        -0.04824347394625   -3.71180967152030    3.74883755753409
H        -1.38799934504140   -2.74447834102531    4.37643314753167
C         0.38626899089201    2.12494150808743    4.21941544091961
H        -0.51960960547281    2.63414157869886    3.89013962718995
H         1.24284104342540    2.78141159603915    4.01235039596115
H         0.30683694026541    1.98007613754787    5.29468120482118

