89
CSD_code = WIQQEU | q = 0 | S = 0 | Stoichiometry = C30H52B2Cl2P2Pt | MND = 4
Pt        2.74394024117748    6.65688020205512    8.72045561783158
Cl        2.73691978463108    7.76083567496291   10.96250070782218
P         2.19662621869937    8.78868971073064    8.05364438720766
C         2.16502617066597    9.18286088826495    6.24355955117247
H         3.17997025821035    9.01240695456324    5.87357696081856
H         1.52701481032588    8.43269190217978    5.77613547108581
C         0.56648598299329    9.36546140957933    8.71046727210724
H        -0.17936278793797    9.14560999602541    7.94260612045017
H         0.35065810262295    8.72937659434464    9.57302440521479
C         3.41324458441245   10.01820257017482    8.69133333731755
H         3.21738172613365   10.99440537616977    8.24242269092924
H         3.26489567174029   10.09224774087883    9.76945029459925
C         1.68452244933343   10.56968336157586    5.83937152161002
H         0.64848869314305   10.72221588005058    6.13080599516695
H         1.74532990373312   10.67163402215314    4.75685757199630
H         2.29418569790553   11.35523933258620    6.28025416058674
C         0.47464452827348   10.82328885143560    9.14804153601128
H         1.12554223112242   11.01273562967975    9.99746145465714
H        -0.54747050985516   11.03859964629432    9.45643379977711
H         0.73722308331641   11.50977570735814    8.34760370811970
C         4.83926153466719    9.56476328555741    8.41402366215797
H         5.02047488489913    8.62593696353182    8.93583840304463
H         5.55324560174727   10.30173874550182    8.77815833008607
H         5.00946074930628    9.41237740818937    7.34971659438612
P         3.48622035149375    4.76370440960870    9.84268894097539
C         4.88295242412858    5.08419916584395   11.00629774243165
H         4.48729844024470    5.78718944030548   11.74301387377245
H         5.11915741369830    4.14519351699327   11.51541740969113
C         2.35007250002037    3.85082728799797   10.97836779416752
H         1.47229659966609    3.57933759380732   10.38886125535769
H         2.85087333252863    2.92349018584732   11.27224869362694
C         4.04805339437481    3.35344797515666    8.77282706198660
H         3.12541875381638    2.89013976216313    8.41348997716859
H         4.54792277473523    3.77903452532851    7.90119278392932
C         6.12748700199554    5.68669737944080   10.37155604496067
H         6.51445914876289    5.06145445100368    9.57012431632206
H         6.90714637952274    5.80551676544457   11.12237436970733
H         5.89939248409070    6.66945294314114    9.96696461544820
C         1.92748508598449    4.62722302565256   12.21998862162900
H         2.73416222790678    4.67376394778882   12.94813119553291
H         1.07418011752540    4.14226019517031   12.69072945896200
H         1.64985139131456    5.64601236884240   11.96350126917228
C         4.94274795477762    2.29977617131533    9.41332084185787
H         5.89970245101989    2.71978815592376    9.71250376810940
H         5.13523906396271    1.50337845087462    8.69637615512751
H         4.47422940128668    1.85204852741046   10.28618268782296
B         2.57586418038501    5.87445581356968    6.78878492778193
C         3.50541464840954    6.10200513178334    5.56573515138143
C         4.89416025570362    6.34221450772216    5.66190222192018
C         5.65964182584092    6.61527811999678    4.53999252251634
H         6.71990773617394    6.79572115516794    4.65756889325757
C         5.10135585097338    6.66647192100388    3.27291094777030
C         3.74346466178172    6.41674011017959    3.15986731069534
H         3.28735331636164    6.44319367278577    2.17941779384329
C         2.95169396860766    6.12829604532656    4.26103797890277
C         5.61072267999209    6.28684518424265    6.97435261746034
H         6.06053829020263    5.30335394318171    7.11073811441871
H         4.91061025299085    6.46698193419171    7.79682486424617
H         6.41111860047296    7.02276241280656    7.00906487113417
C         5.94686362761862    6.95268311560673    2.07065339896395
H         6.50194494789734    6.05843979632109    1.78473151570003
H         6.66926052914819    7.73823778366945    2.28480434182546
H         5.33359160353660    7.25645410172433    1.22565157910501
C         1.49815748309936    5.87599805661233    3.99796633014807
H         0.89843536639130    6.74398653109127    4.26818205690747
H         1.13153743222858    5.03785987162782    4.58301255929137
H         1.33531550578702    5.67112191339961    2.94216688745172
B         1.07842190015482    5.40268469925527    7.11232809126626
Cl       -0.14701437697030    6.65484237910168    6.78776147582567
C         0.47535222774155    4.11781182231805    7.80778351603927
C         0.65898106747336    2.83842751719368    7.26304945341329
C         0.04823009225284    1.73200409507978    7.83894577388291
H         0.20245204119559    0.75658897191432    7.39713541203903
C        -0.75732261415004    1.84919827292303    8.95907624300003
C        -0.91637503925731    3.10890989531149    9.51842913103498
H        -1.52102936650057    3.21820797613468   10.40896802033697
C        -0.31090080934877    4.22903904530058    8.96954492383214
C         1.48588141922715    2.62248653863194    6.02675013696287
H         1.88120930686238    1.60873275677746    6.00617926953750
H         2.30976905155741    3.32971433012344    5.97421881293792
H         0.86788278252970    2.75350257631158    5.13801867538037
C        -1.44110342159248    0.65760191266658    9.55798578713715
H        -1.33031736714000    0.65256741663236   10.64120882403797
H        -1.03334589482767   -0.26783507498532    9.15796488169067
H        -2.50760351871496    0.68713320043560    9.33293869971401
C        -0.47096446578619    5.54664252049179    9.67000552870001
H        -0.76282529444035    5.39662587058480   10.70727986562208
H        -1.23887552494090    6.14912388768190    9.18649510259922
H         0.46878673790776    6.11119416972635    9.64736305833296

