43
CSD_code = WIQSAT | q = 0 | S = 0 | Stoichiometry = C16H22Cl2N2Zn | MND = 4
Zn        3.16143798874808    5.20988696694611    9.66965240582820
Cl        2.56205172358340    5.33578330499442   11.78475141482403
Cl        5.11683896678031    4.81375384131059    8.74995610622671
N         2.00717639425590    3.46166990729829    8.98756076616343
H         2.31973696924407    2.66166242858886    9.53570172508383
H         1.01267359619941    3.56586971484888    9.18034115958638
C         1.83527004959972    4.38936818188992    6.74791478812136
C         3.95958939495170    8.18089104105505    7.73542436038215
H         4.58388173970915    7.29876615053328    7.85188786200338
H         4.59437205649160    9.06263156450566    7.72463326643616
H         3.43627683666535    8.11627858847008    6.78431403086197
C         2.96447312413898    8.27452755873313    8.88701596131986
H         3.51493528006553    8.35488149631390    9.83111700052237
C         2.20675747058338    3.17009211923745    7.55629495103790
H         3.27636405044517    2.98259672660138    7.42198348527825
C         2.78284929739734    5.00425268509048    5.93920068578636
H         3.78964937370973    4.61833083192123    5.91296540347788
C         2.07107490138669    9.48572132515020    8.73056107244952
C         2.44602268371606    6.10993426998207    5.17702015565669
H         3.18958255115124    6.57155572311715    4.54483806927908
N         2.16887936403128    7.02959160258714    8.95986403843165
H         1.68730938881575    6.90310572729515    8.07089112994689
H         1.44992887256724    7.15825181620052    9.67115175982527
C         1.15911399284895    6.62048094927390    5.22062100259792
H         0.89358537758103    7.47850224958485    4.61998534082711
C         2.17131754091626   10.55294910918664    9.61278616185285
H         2.89133183487884   10.51146211646340   10.41713710820329
C         1.41543960215119    1.93877758665936    7.11173181210710
H         1.59429446836993    1.74425610979327    6.05767232591370
H         0.34698649622526    2.08900996729488    7.25486711979801
H         1.72389318865920    1.06325029845064    7.67970421752779
C         1.35933299778585   11.66471168332036    9.47023118333881
H         1.44907034637770   12.48735573214833   10.16383871777181
C         0.54613003267485    4.91132295239405    6.79083364872618
H        -0.21132421064506    4.45025881727699    7.40914239677295
C         0.43243220756831   11.72028262449886    8.44404912076676
H        -0.20378239832418   12.58547965907450    8.33295750252762
C         0.21075558142746    6.02208520107150    6.03487237286009
H        -0.79452736797022    6.41612032901207    6.07628379652095
C         1.13897532063038    9.55183527258053    7.70087618691757
H         1.04870937636353    8.73497983306657    6.99768952385446
C         0.32465087337426   10.66069114055572    7.55937541095492
H        -0.39551733515381   10.69838479565595    6.75510345153868

