64
CSD_code = WIRFOV | q = 0 | S = 0 | Stoichiometry = C33H24I2N4Zn | MND = 5
I         2.68756700119408    2.36097417858296   21.42553465675603
I         4.16909431610498    6.64253268019979   22.62637075358585
Zn        3.02384252165212    4.87731533611669   21.21126831356980
N         2.03104765939635    5.32810875932960   19.37315063782320
N         4.59908429247673    4.82969971502536   19.59803234718011
N         0.91887833965139    5.49167115631972   21.74400553239130
N        -2.32181983276523    4.46337650359161   12.20700478360810
C        -1.39147560153909    4.24326027121280   15.75893703820982
H        -1.78687308822173    3.82233950154137   16.67146180132932
C         0.10281031384717    5.67066340308936   20.70467896570129
C         0.35922960969596    5.35631924661831   14.56073679581225
H         1.30456659467433    5.87866672128636   14.54534046034362
C         0.70382054200609    5.42702895451176   19.38398363975818
C        -0.35417880062262    5.22898650618353   13.39136673185670
H         0.04168227750506    5.63398157489172   12.47214239817265
C        -2.10216862661568    4.09614893554245   14.59025543800268
H        -3.05116592947830    3.58148575625018   14.59859351963881
C        -0.14566706648099    4.87439517731710   15.77028989937792
C        -1.60117822638528    4.59394090553565   13.38205419940175
C         2.67768113847900    5.09219041531903   18.23414321302123
C        -3.72642014120420    4.44710087123092   12.22512378353799
C        -1.21956707337528    6.07030177122276   20.88246226320595
H        -1.86509131924694    6.24114839100223   20.03628471267309
C        -0.04288419737193    5.28484534958969   18.22185063502846
H        -1.11712110601719    5.36115661597533   18.24487506262860
C        -1.66255026679140    4.35256378687746   10.97107557032573
C         4.13916927783939    4.97340044806522   18.35469477308450
C         1.99882173202697    4.94036647506390   17.03216751574310
H         2.53119054189569    4.70224662195351   16.12633564386972
C        -1.69217822352276    6.26670446114167   22.16880642633656
H        -2.71343960236108    6.57807303685093   22.33061180212174
C         5.00281096133225    5.01687539528619   17.26288046789075
H         4.62506189842925    5.16437576636236   16.26412235300336
C        -4.42669692116660    3.58544819072172   11.38329488600313
H        -3.88063028553103    2.92209058084296   10.72879086459211
C         6.36382222792970    4.88747282973156   17.48076498946201
H         7.05259755188947    4.91941432740141   16.64972966442959
C         6.82515669333285    4.72135628014843   18.77628909479211
H         7.87611328199455    4.61368565923746   18.98924532899827
C        -0.83639449727681    6.06326529491364   23.23879451543987
H        -1.16446266743586    6.20384825892056   24.25568034078547
C        -6.50860678693082    4.42606839493924   12.23411787931479
H        -7.58772552981427    4.41767310653690   12.23810822923576
C         0.46808020410474    5.67991123009334   22.97034096632596
H         1.17900147869315    5.52223145459633   23.77021318675207
C        -2.16092206903966    5.01430567490663    9.85074345146039
H        -3.04952524514599    5.62131043477268    9.94388743532401
C        -0.51608036363037    3.57005406480450   10.84781234842073
H        -0.13512470088650    3.04437665986747   11.71132551024031
C        -4.43440652945511    5.30174588572277   13.06804620806906
H        -3.89514957697699    5.98161824566193   13.71164293684268
C        -5.81595627277416    5.28409122062389   13.07239314537452
H        -6.35468350944534    5.95206109341201   13.72802804797367
C         0.60631256487317    5.03414436518339   17.01188274692831
C         5.89695969815665    4.70613562934738   19.80535508858274
H         6.20784915291813    4.59456115036949   20.83541954400525
C        -5.80830200473236    3.58095207115284   11.38900451125790
H        -6.34083759462293    2.90778582278611   10.73398867661732
C        -0.37695468945113    4.12130496570047    8.51499177592205
H         0.12190834217857    4.03153208273947    7.56225220988960
C         0.12133051600019    3.46191682584830    9.62665814397955
H         1.00733224370828    2.85048353683685    9.54116362823167
C        -1.52070564181919    4.89394060206513    8.63229094957892
H        -1.91417898584347    5.41266937103640    7.77090156017421

