16
CSD_code = WIRGAH | q = 0 | S = 0 | Stoichiometry = C6H4AuCl3N2 | MND = 4
Au       -0.43395013219511   -0.09811762987489    1.88207288939060
Cl       -0.43429910487086   -2.31939536293584    1.88191306805634
Cl       -2.38268403023395   -0.11967569187342    0.68927231091331
N        -0.43434840144251    2.00217248826506    1.88178568203423
N        -0.43429643922534    7.32774821056868    1.88194429862247
C        -0.43430986342320    6.18385628777495    1.88196816029258
C        -0.43432660157440    4.76438583053784    1.88200125814839
C         0.71693013098653    2.67182842361242    1.90928554856699
H         1.61884998780475    2.07936875250413    1.96065799453119
C         0.76529883005301    4.05207810474599    1.90852662123599
H         1.71512302607062    4.56262004449980    1.93020214989930
C        -1.58561328858382    2.67178936987651    1.85448753010029
H        -2.48751819533431    2.07932395152506    1.80320627752766
C        -1.63396148442726    4.05204907433643    1.85543455278828
H        -2.58377475027600    4.56259101632590    1.83382420604839
Cl        1.51398031667185   -0.12052286988807    3.07531745184425

