22
CSD_code = WIRGOV | q = 0 | S = 0 | Stoichiometry = C4H10AuI2O2PSe2 | MND = 4
Au        1.38905339034181    1.52812872588354    4.35608672077565
C         5.24066955539356    1.40374682501702    6.82117914082675
H         5.47005843619593    1.33611584144240    5.75102799320873
H         4.66735315685235    2.32100343878735    7.00295773889155
C         6.50737109532064    1.38107128288973    7.65061937048926
H         7.13628783648809    2.22276597056489    7.37578464130211
H         7.05102450656946    0.45664210881683    7.47524210737395
H         6.26290498003306    1.44773329798111    8.70729528020061
C         1.44169599017983   -1.95920683195705    7.14478470221713
H         0.63104300595672   -1.34405788192632    7.55202823641336
H         1.28301269683789   -2.08520433255460    6.06590678795109
C         1.50767779759662   -3.30361479814253    7.83803897138289
H         0.56739179022628   -3.82857873092197    7.69716587141155
H         1.68531465560118   -3.16739028722621    8.90126869536818
H         2.31468756595928   -3.90065981810605    7.42184025823536
I         1.27886069732844    1.24062592923130    1.76345576854424
I        -0.37149108807359    3.44851830591867    4.52150161152787
O         4.44707724654631    0.26880323879446    7.20488696156791
O         2.69027468920823   -1.28327270080040    7.36654908274960
P         3.04368456962928    0.01265331133616    6.55744827161844
Se        3.11768380411902   -0.31361473423323    4.38639282528065
Se        1.61926362168965    1.65719183920533    6.86743896266303

