46
CSD_code = WIRJOW | q = 0 | S = 0 | Stoichiometry = C19H20Cl3N3Zn | MND = 4
Zn        6.38634823826401    2.65157569007319    1.13089427989495
Cl        6.47233058114082    0.79695868791748   -0.09541129784064
Cl        4.82513379450002    4.05659249875129    1.74336607634485
Cl       14.47362478252887    5.91304700992937    5.56116480738721
N         8.26118144422926    3.49180691154833    0.84248205683110
N         7.50483919645377    1.81077659856714    2.86368713389016
N        10.42776315538016    3.09050444472959    1.04897040512349
C         9.17158974979180    2.71949500028668    1.38646750184259
C         8.92889758191519    4.44077567517394    0.11018711446548
C         8.45329452814236    5.49961096921891   -0.65245317804843
C         9.39231482706490    6.29943555413309   -1.26889625255227
C        10.76276641659259    6.06312824782731   -1.13271718949186
C        11.24996838412064    5.01506060024504   -0.37746940099840
C        10.31108054573833    4.20358763370771    0.24020267278942
C        11.68029936433212    2.51425013702822    1.46330910237619
C        12.37941806536136    3.37363804081802    2.49266393829577
C        13.76288005334264    3.49299544238407    2.48216871436200
C        14.41296961416256    4.26833601551010    3.42448083716813
C        13.67062967386577    4.93784124467064    4.38510520140933
C        12.28851908724175    4.83281570932255    4.40762798313430
C        11.65098391220287    4.04980751516965    3.46328007372872
C         8.79662719306121    1.56131504124126    2.24360464971350
C         7.57151432747975    2.74364441140258    3.99087065218923
C         6.23257453007577    2.55762553859216    4.70932098446356
C         5.74788301183303    1.16546949462163    4.26256252584429
C         6.91474015119185    0.60863090768787    3.45353183062303
H         7.39331373665886    5.67336742429903   -0.74547340030822
H         9.06560767242840    7.13268418758264   -1.87165884489729
H        11.45889996713211    6.72022195220032   -1.63127376632469
H        12.30942067255737    4.84292612315108   -0.26903895981330
H        14.34089543244342    2.97389816608379    1.73184793946160
H        15.48740391421316    4.35827262618550    3.41270002090730
H        11.71827249707902    5.35949363091860    5.15604402445522
H        10.57332397181639    3.97639497147057    3.48217162632697
H        11.49292007548505    1.51581210936312    1.86965996782472
H        12.31810584769469    2.40075562106744    0.58113302996865
H         9.57103983002102    1.35336102920361    2.99979366367729
H         8.68479060990502    0.68571275272992    1.59241606852226
H         8.40913064789116    2.46943312187074    4.65208202298260
H         7.71565363924721    3.76472495991446    3.63772807516776
H         6.35595701282242    2.62299734556489    5.78906197511335
H         5.52650193571677    3.32314223550125    4.39468422654619
H         5.49430289232690    0.52113903779414    5.10152020321476
H         4.87036866123329    1.26211490102002    3.62358542565502
H         6.60508035688921   -0.08329767704240    2.67093046652294
H         7.64463841641681    0.11222046058018    4.11078501206398

