110
CSD_code = WIRLUH | q = 0 | S = 0 | Stoichiometry = C56H40BrN9O3Zn | MND = 5
Zn        2.00295111631119   10.25698995346328   16.53022743320919
Br       16.05728037324097    6.18937282779744   15.11866460744451
O         2.62796427285143   12.37304444343999   17.01989112031102
H         2.90540301127655   12.82211314904793   16.21353147089299
O         9.84121471838638    8.64993538766377   19.14083689650246
O         9.30823453848759    6.46493177469940   18.94946239463508
N         0.04049782933988   10.66539725720927   16.29310371022989
N         2.31036811851774   10.59180139043981   14.54041047376877
N         3.97187950105867    9.62208749022441   16.69172194405393
N         1.67604579816199    9.69411316570834   18.44324889427496
N         7.32436488544336    8.93958225875346   15.61841483633530
N         6.87708791072918    8.32414547966335   18.34990313432570
N         9.78504467702126    8.58131751869849   14.55433179147564
H        10.70583834400848    8.40868251866384   14.16276075260771
H         9.01588808231022    8.97793240689889   14.03640767882937
N        10.44696079549152    7.61980442556236   16.59948528283842
N        12.23914716675101    7.68714017049832   15.06032682740348
C        -0.91230108336168   10.61272468927556   17.25874613452002
C        -2.17166395978136   11.05791933024523   16.72710330231598
H        -3.08774264694281   11.12714965587093   17.28039270419828
C        -1.95872125381382   11.36456887516280   15.42654064775158
H        -2.67092221952172   11.71510587906343   14.70535722401245
C        -0.56556941208219   11.12232732551171   15.16768826490589
C         0.04648379938406   11.31588991598143   13.92857072813500
C         1.38948116786887   11.06162069068740   13.65568014733159
C         2.01236321667535   11.29663368563365   12.38122075403776
H         1.51719141259177   11.68726135310501   11.51388931323258
C         3.31267625183232   10.94434755724510   12.51126348049119
H         4.09004784787492   10.98401007526041   11.77316810084845
C         3.48488997924540   10.49903189052012   13.86607008648586
C         4.70075945654025   10.05781970501036   14.38812766009968
C         4.89759479969183    9.63830901214833   15.69705296992002
C         6.15038301921943    9.13129851731786   16.20307864126455
C         5.92595103654030    8.81912087108799   17.56427925775248
C         4.54892168601329    9.14750430151297   17.82847277761739
C         3.93919358365583    8.97913475187506   19.06515149981845
C         2.59297515615227    9.22751145185795   19.32854098228189
C         1.97831388693179    9.01655370889684   20.61011469993632
H         2.48709947323303    8.65268485901660   21.48133366345093
C         0.67548232644031    9.35615526324422   20.47532895583438
H        -0.09901712134522    9.31351373423767   21.21589273519638
C         0.49795156874971    9.78798195716628   19.11461395202364
C        -0.71769562116645   10.21305801297421   18.58117702554850
C        -0.79280217668734   11.82576142380445   12.82142951181172
C        -1.33679617470395   13.10512285864323   12.87928207536863
H        -1.13496326827728   13.72682703007382   13.73975952092298
C        -2.11865053480710   13.58130034193634   11.84244189554206
H        -2.53211758900194   14.57792686502377   11.89584819558026
C        -2.37192362021427   12.78407104427148   10.73873103078203
H        -2.98477877884561   13.15572542033522    9.93097340815619
C        -1.83678051764984   11.50833487683548   10.67502068629897
H        -2.03391078976367   10.88160132632755    9.81755015278496
C        -1.04938183189642   11.03226675893758   11.70765376721340
H        -0.63536207929781   10.03540757728177   11.66290233572929
C         5.87341788876422   10.01781739573865   13.48260281637741
C         5.98336720125726    9.02121852074351   12.52056456448828
H         5.20074767108104    8.28201324272360   12.43315022453885
C         7.08819930376160    8.97056407222332   11.68935130385314
H         7.16757248249339    8.18938901978215   10.94767485058411
C         8.09114057615347    9.91835317069723   11.80761996987153
H         8.95416477574182    9.87839468573006   11.15925870414923
C         7.98177912103686   10.92179966330623   12.75804683245684
H         8.75913851285826   11.66651103810506   12.84932124084325
C         6.87884591283162   10.97132003893326   13.59123436704802
H         6.79417367535866   11.75138248519299   14.33379059263912
C         4.79547567128187    8.49215183049257   20.17282855443866
C         4.72958788607431    7.16827618371370   20.58671342512612
H         4.03561298603172    6.49561803153972   20.10363377588196
C         5.55855965761995    6.71189927182931   21.59537382190292
H         5.51005830506375    5.67759762735879   21.90292068232166
C         6.45346402138516    7.57458745015664   22.20352480702858
H         7.10501758765171    7.21467872326940   22.98620400610461
C         6.51320769169070    8.89875563035666   21.80408217913174
H         7.20859724986380    9.57648606006056   22.27798604503058
C         5.68909386054217    9.35647099543223   20.79344607901131
H         5.73867417730341   10.38816649080137   20.47460622053717
C        -1.88929526294890   10.24179287586925   19.48516567261074
C        -1.93114946990910   11.12826833977133   20.55670864926811
H        -1.10141574073489   11.80122877281742   20.71815104520010
C        -3.02761029059067   11.15704874954167   21.39933714266638
H        -3.05156548374631   11.85252888133756   22.22565699384269
C        -4.09194464112718   10.29703141122175   21.18620550980111
H        -4.94647369399720   10.31836168251380   21.84617214548726
C        -4.05623274494644    9.40927462830099   20.12387135551496
H        -4.88287318623611    8.73465894076593   19.95507112297669
C        -2.96376063356577    9.38300128597255   19.27595100388729
H        -2.93131314647078    8.68770951426958   18.44966788149507
C         8.27097841752161    8.44162744000757   16.40615199729882
C         8.04738974266848    8.13990100632525   17.76685685428169
C         9.59275569854993    8.20047918336912   15.81863119867659
C        11.71289479173977    7.28471992578090   16.22791183555969
C        12.44865640172340    6.50088804948276   17.13108307953549
H        11.96093357026463    6.17498495971900   18.03545638993392
C        13.75018840436456    6.14154026897231   16.84556233106587
C        14.26848892395397    6.60036254585097   15.62911330665872
C        13.48260570835594    7.35231308630575   14.77785572728451
H        13.86605313208173    7.70160076495611   13.82753351603007
C        14.56523791142481    5.30998735968853   17.77819442234094
H        14.89837158617084    4.40023612472531   17.27863886398047
H        13.98638951465477    5.04030975793175   18.65705889661865
H        15.45600686646824    5.85580256770793   18.09032387647606
C         9.15877758527579    7.61413076789753   18.63256778845227
C        10.90703732669762    8.34223452108620   20.02715656117263
H        10.93168685169846    9.12504899783912   20.78325188012269
H        11.84692168168679    8.32762716012840   19.47153499820754
H        10.73599430141147    7.36773937109706   20.48912640987583
C         3.56336032521796   12.65804533194203   18.04423004552973
H         3.23105508362932   12.12493013427575   18.93179951265797
H         3.58891722340068   13.73152332856670   18.25348544583736
H         4.56670690056890   12.31323642388846   17.78060393793644

