71
CSD_code = WIRPIY | q = 0 | S = 0 | Stoichiometry = C34H33ClIrOP | MND = 8
Ir        9.97320607951118    3.70175126755101   11.35027576720934
Cl       11.34974158871708    1.80838763836258   11.69159575660244
P         8.19204940069451    2.52598990648960   10.61203798143401
O        11.57526982790643    1.33725387301226    6.91407155112696
C         7.32716881972081    2.01521766974254    9.20001808499092
C         5.99360544751737    1.64704112442564    9.29099691412448
H         5.51065837445431    1.31311898899767    8.38096348462269
C         5.24104350775178    1.61634663699292   10.46442757146843
C         5.76241783397424    1.95379150501463   11.71580813036118
H         5.08787288331310    1.90326518654042   12.56036472640190
C         7.06052717645361    2.38333271539815   11.92014911244411
C         7.69616246577408    2.74627955988762   13.18574286389234
C         9.01877235620582    3.24085465205464   13.13078037213129
C         9.67804302781453    3.49501214639084   14.32263837413843
H        10.70902089522688    3.81711895788958   14.31227373416243
C         9.04967391237460    3.31740542842957   15.54657406855820
H         9.58811893416519    3.52302912156424   16.46037533670653
C         7.74070563679373    2.87223654769396   15.59480113370528
H         7.24648447417695    2.73672145648497   16.54552727526259
C         7.07420080653539    2.57878699970476   14.42165624154922
H         6.06254509364109    2.20292589453994   14.46403782431701
C         8.09930167665230    1.98663337610876    7.95506100004526
C         7.56206797240879    2.36329802449676    6.72952509933658
H         6.52714198023492    2.66253592618576    6.65963470035335
C         8.37277741892131    2.38465675612304    5.60582368947755
H         7.95934312830450    2.68303371990985    4.65376627757265
C         9.70577241288351    2.03996659851598    5.68934330034174
H        10.34541454166020    2.06331020715349    4.82143353517988
C        10.25519371710641    1.64782327430085    6.91433804876441
C         9.44173842578201    1.61741173223661    8.03739998696620
H         9.82764780716277    1.29854276193873    8.99618427230546
C         3.83032568819190    1.19916744760323   10.38117685857920
C         3.29265751326031    0.31722844512348   11.31599649246494
H         3.92548339002213   -0.08450203644653   12.09401498014639
C         1.96837201243153   -0.07127503810577   11.23705190443531
H         1.56752966712817   -0.76173600640152   11.96478777405398
C         1.15694853058219    0.41899717849079   10.22759717625204
H         0.12178394028322    0.11727590164743   10.16837200549776
C         1.68006383374505    1.29777086817640    9.29388681983424
H         1.05107027190773    1.68683776566048    8.50634735119659
C         3.00574532218202    1.68221450700119    9.36742164767658
H         3.40290702603316    2.38221356373360    8.64636838033205
C         9.51800690617160    5.70643515667740   10.54648437035313
C        10.20313659976263    5.89267265946465   11.78673858509404
C        11.48353120917527    5.28545483702602   11.65209480430441
C        11.65142570840388    4.89571593085924   10.25943144394364
C        10.46208231522769    5.16327000054909    9.58384732528982
C         8.19525527344110    6.30216951063753   10.18223016321858
H         8.33353798145544    7.32490333685109    9.82563675144642
H         7.52735005190512    6.32777594155571   11.04075444803375
H         7.71479338774724    5.72921880659972    9.39071933425775
C         9.69337197558644    6.66718163887092   12.95957580590681
H        10.12764927158465    6.31036240127091   13.89004050434789
H         8.61158960916465    6.58901993362124   13.04103344956434
H         9.95270817044100    7.72107364717477   12.84123297633342
C        12.61800343802957    5.35152487713041   12.62399799250060
H        13.34101646995063    6.10288637339588   12.30000517331040
H        13.13182926879590    4.39284054764299   12.67974367549214
H        12.27060951457131    5.61994519802554   13.61891800844751
C        12.93903950205631    4.38906183570046    9.70075261752643
H        12.83242241996884    4.10352295901721    8.65710626875502
H        13.28301602195838    3.52230220974412   10.26556851325151
H        13.70541458564237    5.16269697120458    9.77261792260778
C        10.19891000204151    5.05005985103197    8.11723385466912
H        10.29524367772251    6.03153178295420    7.64821126407258
H         9.19323785983311    4.68113319809016    7.92117319845646
H        10.90233918506640    4.37336465008359    7.63871313621218
C        12.14932123766391    0.84526844266962    8.10902558602725
H        12.05288413852702    1.55065460700450    8.93793531409945
H        13.20304715788735    0.69081469208785    7.88421635932908
H        11.69795224069411   -0.10673424754188    8.40181354706288

