73
CSD_code = WIRPEU | q = 0 | S = 0 | Stoichiometry = C35H35ClIrP | MND = 8
Ir        3.33010155907769   10.34554178861679    5.19691075792965
Cl        1.21606185317193   11.36351705808941    4.90922297356216
P         2.64934229037983    8.31926103236508    4.49254161110596
C         2.55643474841021    7.25250073702892    3.13055012613591
C         2.32960759015536    5.89741830507807    3.32493862041666
H         2.25993068003812    5.27752138496861    2.43948716003632
C         2.12459774265227    5.27529733690238    4.55531722589268
C         2.10059689413488    5.96918071108546    5.76751912977249
H         1.92916751253999    5.38905768422526    6.66463231089543
C         2.32030959999363    7.32933186192042    5.88004515802696
C         2.29647694319649    8.14677171869898    7.09163680888376
C         1.92871390458787    7.64272896573771    8.33664615052260
H         1.68645414977991    6.59417643851859    8.43500374552084
C         1.84830058068873    8.45742124448678    9.45435117198557
C         2.12739564151142    9.80876434270088    9.30611221481219
H         2.04509120374142   10.46923376275970   10.15781162512848
C         2.50095322586468   10.32564576993227    8.07511592083915
H         2.68059657843244   11.38768985623115    7.99534654392176
C         2.61644911553928    9.51662868998708    6.95655555966132
C         2.70045155204270    7.86100415142511    1.80585899422999
C         2.19041609679152    9.14275667264411    1.60459635440571
H         1.67231578821206    9.63395366699572    2.42032662294009
C         2.31279839060944    9.78733819268089    0.38533294653848
C         2.96621243857405    9.12963311414394   -0.65286996395501
H         3.07411724011720    9.61916072993122   -1.61030920660306
C         3.47617932049066    7.85697568620886   -0.46752496001050
H         3.98484202332102    7.35905857605274   -1.28038956829197
C         3.34615297373768    7.21873893977193    0.75292691051533
H         3.76568609249903    6.23359745829841    0.89530546787914
C         1.91224886362681    3.81725336825358    4.57397592660750
C         0.91306427511100    3.25080842440442    5.36217398189828
H         0.26861820976668    3.89177561810069    5.94605990234385
C         0.72061312550791    1.88198135114042    5.37895455835110
H        -0.06349082870244    1.45779540479933    5.98916715050003
C         1.52601116326364    1.05494763523139    4.61407668660405
H         1.37619202630259   -0.01440447581118    4.62935565215536
C         2.52381189625380    1.60656436346399    3.82812826329168
H         3.15773378089340    0.96651060616464    3.23161822187401
C         2.71356718620253    2.97549171939564    3.80547698409167
H         3.50554588379556    3.39809398032404    3.20387845820950
C         1.47179324850998    7.88796911297331   10.78968953567691
H         1.03802283434875    8.65348131064447   11.42832437807539
H         2.35575427767564    7.49016302834478   11.28985620346023
H         0.75636721175047    7.07653694346052   10.67689177063321
C         1.73846751237384   11.15658317380744    0.18821644776447
H         2.44430545811941   11.80391711555160   -0.33047207478096
H         1.47507869681836   11.60376224353934    1.14327761140941
H         0.83620172312877   11.09722757252566   -0.42054737023955
C         5.23613319986622   11.19305168111235    6.07011118504689
C         4.47918548533167   12.22539511932742    5.45288880572272
C         4.47173818078134   11.98316664394933    4.01786504098716
C         5.12487823798745   10.77575962525438    3.77677899403585
C         5.52792772949679   10.22436122815025    5.06060994941778
C         5.73642853686603   11.14571840861529    7.47857206493909
H         5.21484456696893   11.86155705046970    8.10784616479071
H         6.80077456007516   11.38825446978958    7.49379497345140
H         5.60692799136477   10.15570172187109    7.91202392184486
C         4.03488609075240   13.51593068310832    6.06224949821819
H         3.01712111704117   13.75080058664091    5.75335464670503
H         4.68534045034884   14.32802146559927    5.73099897377144
H         4.06441517761602   13.47395693455279    7.14859174514801
C         3.91964179407808   12.94926320923053    3.02308787201645
H         3.97332374251675   12.54632119091151    2.01510476523462
H         4.48159996797543   13.88407454524902    3.05602211587708
H         2.87820058728276   13.17426534565605    3.25250576393140
C         5.46678455919278   10.16671098913777    2.45557117088082
H         4.81917305813073   10.54077407126735    1.66656695854628
H         5.36681806850545    9.08246402274465    2.48402388936450
H         6.50076843706434   10.40320054687766    2.19555663806814
C         6.43483061372955    9.04721658578987    5.23362398674599
H         6.21113769627738    8.27000955262561    4.50493967033570
H         6.33326552715323    8.62313250168473    6.23029022289992
H         7.47419434914993    9.35322744695207    5.09642028133655

