145
CSD_code = WIRQIX | q = 0 | S = 0 | Stoichiometry = C64H69N4NiP3S4 | MND = 5
Ni        5.76168858778381    3.22780514462634    4.99950217949175
S         4.49885539683494    9.76965981617484    4.73435271061255
S         7.11221626196494    5.05614837165071    5.29838658947499
S         5.60271941134542    4.10516793125987   11.20855612932172
S         3.59903572514572    3.71526827337429    6.16907674571816
P         5.11924390782498    3.73056064066619    2.85888634728638
P         4.70219722756988    1.37034431444675    4.73046085476438
P         7.54611658345682    1.98391587557050    5.25870443715970
N         4.52743970050407    7.72316807351487    6.48286979910110
N         5.91323651875884    7.47887671346297    4.79710970535629
N         5.49302188874869    5.62676764137200    8.99069094701426
N         4.45677950836940    3.70004583805351    8.80208462140738
C         4.98143969033963    8.30796797038897    5.33912091274577
C         6.04868968752363    6.37136137373575    5.60631099213459
C         5.19520574311353    6.53263279251204    6.66587026206701
C         5.17988342955517    4.47974672735118    9.65272396863056
C         4.34327352904434    4.34897720276074    7.58946879705912
C         4.96170817203400    5.56248384484707    7.71794638289650
C         4.45038588781459    5.32302702921071    2.29216774325077
C         3.57757283710871    5.94250408158358    3.18497925037755
C         2.99613025074039    7.15281971824290    2.86229607995738
C         3.29417121113632    7.76073941101182    1.65323631162874
C         4.16072333822457    7.14672417791995    0.76355077244602
C         4.73827283877915    5.92745093727668    1.07422164730814
C         6.30248692423995    3.24209002425484    1.57084758922212
C         7.38401580292781    4.08974439653380    1.33480714253141
C         8.36467814675805    3.73555330197976    0.42895528739014
C         8.29443171433996    2.51480594217952   -0.22490284008425
C         7.24093295761750    1.65275000915355    0.03257505126267
C         6.24577447496678    2.01190614999234    0.92397760979881
C         3.70703434095769    2.62267660640340    2.50746755001885
C         2.85987310319935    2.81043551130850    1.42347479892441
C         1.82085223306707    1.92518360772643    1.19787786286216
C         1.62583673449072    0.84709531031219    2.04796581954994
C         2.46102713196242    0.65270298540280    3.13433828546498
C         3.49861863515362    1.54598416065536    3.37587251135765
C         3.90032060175474    0.32035638736415    5.96652026446707
C         4.65528937592535   -0.61326510479614    6.67135481687690
C         4.07267901233461   -1.34588358282976    7.68907713433977
C         2.73888126766998   -1.15168577098277    8.01002367302820
C         1.98769980162230   -0.21267185267955    7.32008913231729
C         2.56603435885134    0.53330043301951    6.30992458906756
C         7.26505834419576    0.51122934323807    4.22352896174334
C         8.25496091288427   -0.30312544225515    3.68934182640649
C         7.89875576561486   -1.39608466320591    2.91814555854931
C         6.56260014966528   -1.68751225441141    2.68747175907087
C         5.57003976192279   -0.88743495374939    3.22652693082947
C         5.91939098827616    0.21795052208429    3.98852672834798
C         7.77519881453255    1.29349849896250    6.92358846942673
C         8.31437897862540    0.03446801237618    7.16035669519483
C         8.44917186570405   -0.41305693844852    8.46228293142407
C         8.05963324036876    0.39037512225178    9.52276685492541
C         7.52882034416403    1.64862283984777    9.28937264183026
C         7.37854396500180    2.09450302683062    7.98946497283478
C         9.20104844887713    2.57202819811759    4.81748487812841
C        10.03082040663350    3.12542563355989    5.78769951370262
C        11.24350161483368    3.67876798231339    5.42076074388210
C        11.62854854612488    3.69384540719956    4.09017446231759
C        10.79459539285493    3.16018680824627    3.12041979324453
C         9.57897751058842    2.61000544341472    3.47811914219811
C         3.54623102539951    8.31856564019760    7.35251780714375
C         2.12111817264105    8.17212533665383    6.81640828237780
C         1.63178315147862    6.72854228831449    6.84313443042738
C         0.22172229281223    6.59694184303090    6.28437415103813
C         6.66758472165521    7.76209136720750    3.60743068596116
C         7.80697547094189    8.75009697507084    3.86991469561427
C         8.91233016333177    8.19803801686366    4.76996267482275
C         9.76943569453319    7.13898273979215    4.08565912358991
C         6.43055425717913    6.61369452382583    9.45492747703119
C         7.85070849064263    6.25657100148958    9.00266764258671
C         8.84395994726182    7.39151367289465    9.23507656988371
C         9.04831079718811    7.70881039850053   10.71161035371425
C         3.93749227500905    2.39988082950047    9.12334455043393
C         2.61331502550527    2.47557079238848    9.88407604338583
C         1.51611190451282    3.16629299148076    9.07964071024445
C         0.18126189177753    3.13818654424351    9.81142246660371
H         3.36746747063527    5.45887973784815    4.13131805397295
H         2.32102308306430    7.63228430770409    3.55423288863720
H         2.85753087097440    8.71755628787232    1.41033633161767
H         4.38987700449717    7.62012552928141   -0.18044047604816
H         5.40867646160132    5.45138295688898    0.37226356995994
H         7.45285936034752    5.02322044884332    1.87706985278713
H         9.19028288026234    4.40614681334509    0.24085999141662
H         9.06405728692327    2.23192113683698   -0.92784168309869
H         7.19189975673954    0.69473657982477   -0.46482616842643
H         5.42541750217446    1.33443944914450    1.11822891440891
H         3.01740523028977    3.65063100056344    0.76190169663523
H         1.16024480300864    2.07404769017696    0.35664819512909
H         0.81579858059165    0.15608721449225    1.86613667021084
H         2.29841478962520   -0.18499610884407    3.79866611361149
H         5.69869349377451   -0.75898414300141    6.42417704250695
H         4.66308959336865   -2.06664106465792    8.23520671317323
H         2.28667754836606   -1.72618576619579    8.80462152044351
H         0.95138603517171   -0.05277838114891    7.57880199048235
H         1.99957152459914    1.29613895856361    5.79386731284296
H         9.29697358026196   -0.07668550375255    3.86865375694531
H         8.66734604990481   -2.02535263508802    2.49407317473609
H         6.29444979443219   -2.54078693494439    2.08205984671534
H         4.52806016241960   -1.11223402884631    3.04613033910492
H         8.61894775303180   -0.59154463415325    6.33239478721640
H         8.86151784443234   -1.39419410179741    8.65056231904675
H         8.16877150063333    0.03414337406968   10.53622404209364
H         7.22874053326249    2.27352759404505   10.11809685032008
H         6.95556056881509    3.07118576652522    7.77736206826482
H         9.72238082116648    3.12216841052821    6.82384253403617
H        11.88809423703430    4.10553115350878    6.17506940199807
H        12.57486421262213    4.13021538089088    3.80675520047906
H        11.08824366129163    3.17938061359655    2.08104578729282
H         8.91547627970913    2.21090487585110    2.72307384104744
H         3.78875934267168    9.38377734512059    7.43335235351527
H         3.63167251436658    7.84622000857806    8.33466832631843
H         1.46343193643462    8.79421587723229    7.42687818738025
H         2.09615783278716    8.56319720059757    5.79799600442589
H         1.64613886284197    6.36548876071970    7.87439614918125
H         2.30627401587619    6.09589500741007    6.26408391386641
H        -0.09774039808544    5.55805464871481    6.31194929588621
H         0.18601120635653    6.93859876640224    5.25213779963785
H        -0.47932898035492    7.19183333425754    6.86655808680116
H         7.05252789216144    6.81028456724097    3.23623724963267
H         5.97883592252463    8.18999747361990    2.87252214194310
H         7.37422254949473    9.64274777391178    4.32631451369335
H         8.23169432422799    9.04142974504967    2.90743126557438
H         9.55154554890707    9.02980054915252    5.07529017353169
H         8.47238844567734    7.77190157663685    5.67390298472903
H        10.60739517325290    6.86597302307141    4.72279835760416
H        10.16139757963011    7.51450270885196    3.14236178831181
H         9.19729723509143    6.23488307591214    3.89556693478303
H         6.36887118992071    6.63252426486199   10.54548985734094
H         6.13987264481571    7.58780323915674    9.05110115049506
H         8.17490281391404    5.36441475133890    9.54304452085048
H         7.82743339464956    6.01392982048798    7.93638415643546
H         9.80084011778539    7.10286391065867    8.79439926545110
H         8.49858715014337    8.28674486932554    8.71163468121081
H         9.84464289921289    8.43945245521038   10.83398143476060
H         9.32000169051783    6.80889202494778   11.25862950294303
H         8.14333346226860    8.11799639705647   11.15294278407671
H         4.68242003101373    1.88201675655264    9.73523544798131
H         3.80566617204324    1.86157586661272    8.18200316639598
H         2.30841127529459    1.45503105720744   10.12463254618280
H         2.77773329289840    3.00924641741153   10.82244156710445
H         1.41680417561359    2.67632144682710    8.10902241487484
H         1.80145409384775    4.20307983137732    8.89069802179511
H        -0.58502210114188    3.64371573524246    9.22827474511743
H         0.26466237805556    3.63627228277928   10.77497122513074
H        -0.13781024317627    2.11240548837653    9.98537451144430

