45
CSD_code = WIRRIA | q = 0 | S = 0 | Stoichiometry = C12H24Cl2N2O4Pt | MND = 6
Pt        0.26007780750801    2.15506252307871    4.11178638234278
Cl       -1.09298689701346    2.14206223675858    2.24879990759347
Cl        2.00846103538517    2.96313974317703    2.88892478093490
O        -0.30861411121589    4.12516308005447    4.40144377218134
O        -2.27318288405738    3.80738439760288    5.40560952541088
O         0.81610375795190    0.23232172041395    3.56050629127832
O         1.95054511791386   -0.43874093016616    5.35449982012626
N        -1.29466027437803    1.34202838381282    5.33980588632639
H        -1.91501207107052    2.18670606394221    5.42769773932253
H        -1.81609623386773    0.57858636520130    4.91493412508520
N         1.34041411977697    2.09852589386197    5.98403550563736
H         1.72153708550644    1.12476506123675    5.89315817923644
C        -0.72205085472217    0.99143001315312    6.63970092392015
H        -0.21965192683498    0.02080437113368    6.57238025303856
H        -1.50165187193356    0.93328391998219    7.40831598405811
C         0.30353451400864    2.06148643397170    7.01882989438006
H        -0.19405229387831    3.03380169119868    7.08043299681129
H         0.73973410735467    1.82256027695850    7.99484051019504
C         2.49308810904048    2.98134851693607    6.21283910424283
H         3.06894302909349    2.95392348789846    5.27961944917359
C         3.39240411602995    2.45705967914254    7.33758577997551
H         3.64631964378517    1.41167745113880    7.15076853818235
H         2.87520211538556    2.52130161690242    8.29770161653791
C         4.66094758464944    3.30427270786565    7.39970865731359
H         5.30699941595502    2.94140259817224    8.20120668768840
H         5.20527844769442    3.20679803359406    6.45878151961692
C         4.31168436746173    4.77113731212833    7.63403223950915
H         5.22386201716658    5.36951235042687    7.64933207286292
H         3.82709048723311    4.87777191903916    8.60769577803211
C         3.37591669968046    5.28226932812802    6.54209332495131
H         3.11162647202094    6.32277502882705    6.73723923783563
H         3.88192839756015    5.23942414104225    5.57643886136700
C         2.10815444054523    4.43335417476066    6.47942955001182
H         1.57222458943623    4.51925040124857    7.42754138486348
H         1.46474627520114    4.78888492840997    5.67416142656741
C        -1.44014356952703    4.51288120074787    4.83946925751727
C        -1.69300617929197    5.99564050411875    4.63840576788427
H        -2.24710289050058    6.10764834945101    3.70868912399555
H        -0.75275747141013    6.53131273297762    4.55406544817499
H        -2.29484399690225    6.37950633625926    5.45686258998964
C         1.53679925086975   -0.59199820694467    4.20479440211602
C         1.83181841672969   -1.87122497605394    3.44151467170109
H         2.74739189544271   -2.31423434567100    3.82150343548633
H         1.91349236507180   -1.65319038543809    2.38152176724768
H         1.00758784514562   -2.56497613048253    3.59489582927570

