76
CSD_code = WIRTUP | q = 0 | S = 0 | Stoichiometry = C27H43Cl2N2PW | MND = 5
W         0.80695010245360    8.01060465688740   11.31714770881771
Cl       -0.38070565541692    6.07978377397221   10.98282688311786
Cl       -0.07934776089004    7.87578221291027   13.50739594571671
P         0.48517375341311   10.41620056582419   11.96935263299287
N         2.55620995987730    7.72386673767767   11.62713106972820
N         0.64584683819753    8.63026212986639    9.64224695712588
C         3.84868323561993    7.53557191168478   11.32797044586908
C         4.23047474388209    6.40238550916080   10.56527279844135
C         5.56993259863395    6.20050229232304   10.29567439103553
H         5.87912287926726    5.33561469861494    9.72998905454182
C         6.53222469580177    7.09298340330245   10.73986376218913
H         7.57464015722020    6.91453584689677   10.52203173240017
C         6.15866061094153    8.21405815715043   11.46102621113262
H         6.92058114100203    8.90108364489278   11.79568888092917
C         4.83123784971111    8.45777844821988   11.75814563989459
C         3.13470887341786    5.46714244767169   10.11143974804685
H         2.27567828445278    6.10223982935337    9.80013254725535
C         2.67614909040726    4.60563206052430   11.29683039402749
H         3.50202223850043    3.99604634040663   11.65978460967073
H         1.86016583319282    3.95140382557647   10.99684682806498
H         2.32611998470482    5.24119748349526   12.11467723111093
C         3.52692356766240    4.58055471512752    8.93282987296095
H         3.93961740544831    5.17605138928431    8.12182044268212
H         2.64911507625811    4.05533615204486    8.56275486564400
H         4.26116637047612    3.83636172507402    9.23367903381604
C         4.36271543375698    9.64717870272157   12.56451769326976
H         3.38985337704782    9.95630318670963   12.13754579367422
C         4.12134774736724    9.20532006472265   14.01346329585214
H         3.31012543133437    8.47845912180457   14.04740607565992
H         3.85682453167525   10.05427796793574   14.64191488135860
H         5.01984538118477    8.74448100785701   14.41956474274570
C         5.31349012176200   10.84048496405812   12.51403057229562
H         6.23124655372718   10.62874852796726   13.05727987157062
H         4.84694193903301   11.71020880855120   12.97435910143211
H         5.56490501782915   11.08912640757193   11.48545598519661
C         0.47625699169935    9.30340738302077    8.49646037767209
C        -0.80986435306696    9.38804815533242    7.90387861700293
C        -0.96999360152227   10.11318181141709    6.73794656887013
H        -1.94164979321223   10.17366161409771    6.27143428119356
C         0.10324072783978   10.76262989787007    6.15180518069818
H        -0.04049987419777   11.32688101213518    5.24222204059414
C         1.36541016841543   10.67316948221994    6.71826701462216
H         2.19478166174295   11.16691010609462    6.23505202878109
C         1.57679194121762    9.95512392928006    7.87893717116349
C        -1.93461292791868    8.60751070937300    8.53931318663723
H        -1.69127631795103    8.48805494415021    9.61341706179886
C        -1.97204967770463    7.20172363588927    7.93071493727584
H        -2.14823960004653    7.25690257022791    6.85813571573132
H        -2.76227540899264    6.61052635138126    8.38837538136529
H        -1.02125872998743    6.70042131197317    8.10456160550684
C        -3.29612087335704    9.28901535219322    8.41956975258346
H        -3.23886344996794   10.33485557801393    8.71821858582441
H        -4.02024667459289    8.78571444017044    9.05716034453662
H        -3.66416228419486    9.24336778025106    7.39751327818964
C         2.94423873406469    9.77328508043664    8.49286638263222
H         2.79905162222702    9.55097857675942    9.56306570612231
C         3.60251842622932    8.54555464394575    7.85473932349512
H         3.74739350435063    8.70406590094914    6.78766968480826
H         2.96465695606729    7.67688887961587    7.99764481947704
H         4.56511555913444    8.34797820978897    8.31999256082812
C         3.85150871125097   10.99381024208572    8.35666255521465
H         4.74168426097305   10.85168521278948    8.96528698902564
H         3.34547588677598   11.89991913903249    8.68324972819434
H         4.17077652618424   11.12969394947025    7.32613207555712
C         0.82933002840271   11.07269809113313   13.64793245338176
H         0.41837290009571   10.39409211169624   14.39315526755177
H         0.37903093228593   12.05895299280094   13.75615651953708
H         1.90479382508026   11.14657841606557   13.79479188077906
C         1.09054821111041   11.79333980570198   10.91903085360074
H         2.17058625009399   11.88094041219398   11.02120248685839
H         0.62064951917920   12.72920308441414   11.22030465597526
H         0.85629813771216   11.58380594500689    9.87615601173762
C        -1.33065173551129   10.66689337797866   11.85537330668500
H        -1.64126379470796   10.56290640412416   10.81510556487554
H        -1.59699493617543   11.66269389279356   12.21152844845587
H        -1.84173485801486    9.91776084818334   12.46407189485594

