89
CSD_code = WIRVUQ | q = 1 | S = 0 | Stoichiometry = C35H44NNiO6P2(1+) | MND = 4
Ni       13.07667053371395    6.87670308121024    7.34425620140728
P        11.81859556937002    6.25246044329841    8.96521130401494
P        14.51041692894999    7.71720380761960    8.69370720602042
O        14.39226209608352    7.42573677496156    5.99685943041002
O        12.77807908252333    8.89859409963035    6.11045545419261
O         9.85113204416984    6.04990989303785   11.16312178363743
O        16.90736369426925    8.01786078840174   10.32784644581476
O        12.96883285061189    3.93826066050067    8.03063544733160
O        13.23743069450854   10.27118783243497    8.71671718582252
N        11.89209953074801    6.11059191966503    5.82864987606168
H        11.44015862675407    6.95032382018362    5.46321108308039
H        11.17340115031512    5.41780805131765    6.02056591415379
H        12.50569364532927    5.75138605918383    5.09850019732791
C        12.74725964588849    5.72447582932187   10.46881131521653
H        12.06406737714771    5.17929375189174   11.12200836308926
H        13.48634661174826    5.01774654124556   10.08090982601716
C        13.48313762826946    6.81369483275888   11.27236863314034
C        13.90657153024687    8.01547440936280   10.41274757899997
H        14.67188537154070    8.59014312613986   10.93628933130226
H        13.03418190160471    8.65933558157954   10.27534724048408
C        12.57305855182827    7.35846605363632   12.37896439985615
H        12.26388350220774    6.55869286830383   13.04770589510792
H        11.68510321713081    7.82181453111481   11.95837665957155
H        13.10115298718109    8.10604428556623   12.96655475307391
C        14.69849972637092    6.16025860491539   11.93653133376874
H        15.23620718395124    6.88565167068723   12.54202519453756
H        15.38075514951404    5.75619712471174   11.19364340284559
H        14.37946657974262    5.34775059583016   12.58590033222888
C        13.84186350115460    8.50846063880330    5.60920483362716
C        14.53319905560195    9.28602649267852    4.51437416143763
H        13.80109609281003    9.83969324512047    3.93380892705923
H        15.10187694999824    8.61402158600588    3.87843651022727
H        15.22011168013826    9.99159490610946    4.97767784846353
C        10.52871961956805    7.44007739480033    9.41606052774183
C        10.37642890924475    8.56445350245658    8.61684997684124
H        11.08048552834240    8.72555137290782    7.80708598238803
C         9.34722784749544    9.45892583285059    8.86082728438801
H         9.21531011921534   10.32354557514306    8.22935775334990
C         8.47990393161599    9.22935861432250    9.91473362655569
H         7.67714388004383    9.92235253444740   10.11493266904647
C         8.61863138347268    8.11057861383317   10.72198990909313
H         7.92435587510041    7.95419776890114   11.53201249203056
C         9.63551350531618    7.19813366184638   10.47172974154892
C         8.96547575710235    5.70285719047242   12.20478937852363
H         8.99511578036273    6.43618040293052   13.01580791157878
H         9.30977807166593    4.73963649796730   12.57705200237107
H         7.93967991417257    5.60013912925971   11.84048406746382
C        15.93810190501862    6.60302116876748    8.75251818664024
C        15.97719953914462    5.50580826403356    7.90789557856436
H        15.12871881524201    5.34359814571809    7.24966640138014
C        17.08665879815275    4.67672921708526    7.88613086679991
H        17.12901464737250    3.83074465719295    7.21727179810057
C        18.15769220998137    4.95419878815414    8.71792229792893
H        19.02725769534793    4.31522746605855    8.70873838002951
C        18.14136607546055    6.05661510705511    9.55856488315209
H        18.99643478926712    6.25624779477031   10.18411130618667
C        17.03590566076301    6.89767906749167    9.57587147762891
C        18.00313799874793    8.44539664899972   11.10788196707082
H        18.24405792825200    7.71962569059805   11.89012339482892
H        17.69191045907877    9.38170159862473   11.56751830278891
H        18.88624776383486    8.62566212191213   10.48947126975356
C        10.86008317256439    4.77695448696195    8.50657836130114
C         9.47637749417304    4.69625693495457    8.45769197369339
H         8.87635843301443    5.54549813019281    8.74423642679686
C         8.86115900834667    3.52689760581046    8.04192535392766
H         7.78471963624732    3.46256405669951    8.02356586244717
C         9.62802011929279    2.44531155129866    7.64665138018183
H         9.15040204334736    1.53241047918887    7.32679654364043
C        11.01226715243739    2.52563576636399    7.63409969737872
H        11.58772210245470    1.68188749987832    7.28891790825562
C        11.62942630122729    3.69659644195587    8.04949809929396
C        13.82892611273221    2.83889596860202    7.79671675770151
H        13.57173905514050    1.99823977454889    8.44632947221740
H        14.83424110735158    3.17878777861430    8.03383763986847
H        13.78895358012312    2.51862676408223    6.75170622212347
C        15.25563395000801    9.27611011458243    8.14443599934779
C        16.51760228267768    9.32322478821555    7.56746213704989
H        17.09783323004744    8.41822068983666    7.47403606970188
C        17.02893126117873   10.52009016542927    7.09768929506801
H        18.01555913747417   10.55108193867010    6.66245679076579
C        16.26198753063271   11.67029265835673    7.17068924422050
H        16.65153836899843   12.60454135246582    6.79612931008080
C        14.98360014590926   11.63351315299028    7.70147839405413
H        14.39381853428836   12.53544095568156    7.71830652901433
C        14.46988743586951   10.43670755730632    8.18654888163988
C        12.35796633057769   11.37607277557483    8.73279754991807
H        12.78228274877194   12.21280338767540    9.29532372586399
H        11.45459758945846   11.02918364224101    9.23043853656956
H        12.11503103580010   11.69604584595697    7.71653233474514

