43
CSD_code = WIRVIF | q = 0 | S = 0 | Stoichiometry = C16H10Cl2F10N2O2W | MND = 6
W         2.94709757129459    1.88668294162914    4.30522115762339
Cl        1.05777645417097    2.61487914685916    5.49406184732681
Cl        4.14974677763388    0.19964346292293    3.28989423626828
F         6.14083521156077    1.79074244796297    7.48939704129633
F         7.46945387058209    3.84857801909868    8.68947461231862
F         6.82253493726436    6.42946266708982    8.11825605873161
F         4.82447338061277    6.97432654674043    6.33286562544782
F         3.48339131055024    4.85874017955216    5.10671167222207
F         1.53447343023047    4.80639234853418    1.14603681454846
F         2.99067187204872    6.62008642848619   -0.28534499866794
F         5.69484430757674    6.74319123708148   -0.01028240522348
F         6.97291300566355    5.05010372008034    1.71390047991849
F         5.46646733182113    3.20919479092046    3.18016678857601
O         2.31174258183558   -0.06992142599306    5.59895603814709
O         1.21502859938763    0.72868772800736    3.15022791204812
N         4.10765781690606    2.37854302244711    5.59986568817500
N         2.88369116412582    3.06892273023402    2.93805753792050
C         2.45964474854509   -0.02276318981308    7.01556428810241
H         3.47905914218503    0.31464770034391    7.21075006660667
H         2.31677364751748   -1.02183888008997    7.43922208333115
H         1.74010472999061    0.67596871448237    7.45791543859505
C         1.04711702685947   -0.58577302091595    5.19261241247291
H         0.24172207874248    0.05123042823549    5.59142849759438
H         0.92873869531024   -1.61091125027652    5.56959717592561
C         1.03856437741633   -0.58965037611706    3.66100599889812
H         1.89698904181806   -1.17416174646365    3.30106181300046
H         0.10750436581520   -1.02464446365841    3.28372430101300
C         0.00413617304067    1.38942630145635    2.77579534551368
H        -0.66132295140719    1.52803617893464    3.63333593140958
H        -0.50161832321116    0.81666829695820    1.99269594547909
H         0.29594555504656    2.36624555845640    2.38286453364682
C         4.80548571047888    3.29942998256614    6.24630228186282
C         5.82951030739481    3.06311794809546    7.18858289123368
C         6.50265455933850    4.10552766936404    7.80281568269773
C         6.17105506350448    5.42871038190133    7.51512728164906
C         5.15001014325243    5.70711411112562    6.60330116191099
C         4.49584080455493    4.65949155605205    5.99316446618555
C         3.48878367529474    3.98250682094376    2.19651335753202
C         2.86987491279747    4.87064600782634    1.29127676779306
C         3.60536267307051    5.79095357123854    0.56431843131392
C         4.99127921253342    5.85522967638435    0.70173999933181
C         5.64499715272292    4.98815106327766    1.58090301856105
C         4.89868785251972    4.08448496811520    2.30441472336998

