61
CSD_code = WIRWIG | q = 0 | S = 0 | Stoichiometry = C22H29Cl2F3N2O2W | MND = 6
W         2.52686697188499    2.93803594381592    3.56206866464061
Cl        1.41130482744143    2.12052273807136    1.67366245909180
Cl        3.24177235292423    2.55813975896281    5.79176864273362
F         0.68346773319767    6.55012974443245    5.55244674529404
F         1.36534759605637    9.71021710108635    2.13233749561289
F         2.37397445261753    5.14550651039986    1.38690684859215
O         0.67671725321807    1.75942830441347    4.50961415624968
O         3.02484992227932    0.53687779902278    3.62096516458677
N         1.62534756695014    4.49949856661415    3.82075344522642
N         4.10481064175644    3.33776581836529    2.85591571230871
C        -0.61560560852146    2.32083429227465    4.32166587499188
H        -0.92410696482843    2.24488153413820    3.27221346020910
H        -1.34343687015588    1.80947351224391    4.96091269112573
H        -0.54294728472948    3.37063421140791    4.61208817906421
C         0.71196591964373    0.36786581213160    4.22228904767377
H         0.44362223680138    0.19795553864930    3.16740451359667
H         0.00240101138582   -0.16073357958781    4.87499034670473
C         2.12504457105996   -0.14072363711845    4.49024816393907
H         2.40184345740657    0.06059681698008    5.53718831596464
H         2.17172689378501   -1.22180077257011    4.29610340915095
C         4.37527530666771    0.14791871291803    3.84566976464887
H         4.68358746387231    0.39402471161416    4.86816813737245
H         4.48710524774291   -0.92762158829575    3.67037492359523
H         4.98730718586006    0.70419151194066    3.13506626578568
C         1.53694048041469    5.78161172269267    3.48045306848792
C         1.93336629944805    6.16513771817980    2.17592961620264
C         1.87766492446171    7.45023301457412    1.69838531356768
H         2.18739436635779    7.69043023286565    0.69490219831863
C         1.42223805786775    8.43407476312247    2.56573772854858
C         1.02368535573545    8.14666456095792    3.85984072413301
H         0.67363325426928    8.92621106939406    4.51656384505335
C         1.07682086798597    6.83916922387467    4.29245282399204
C         5.24108989009688    3.86364844406227    2.38018152630454
C         5.82216044245321    3.35590298253677    1.19453031501968
C         6.99926602959905    3.91206489597223    0.73009624789506
H         7.44422123682341    3.54025087447130   -0.18063950426225
C         7.61955513963606    4.94054166640419    1.41857768192173
H         8.54577077842389    5.35544920476057    1.04948161949140
C         7.04679463902235    5.44616403190076    2.57389829725617
H         7.53612909384400    6.25527490619954    3.09516359583351
C         5.85827472079736    4.93986901095853    3.06531625222508
C         5.09152461997929    2.26918678633941    0.44208641762679
H         4.34099018140717    1.83683759895776    1.12417077705868
C         4.33069364866413    2.88867775499875   -0.73363961325597
H         5.01996548463116    3.37479457203985   -1.42081271416398
H         3.77870708371489    2.12152630868798   -1.27243183724254
H         3.62484908096291    3.62859603685206   -0.36319198693307
C         6.02070784753379    1.15183920432938   -0.03206036382537
H         6.63598983464074    0.78591134925033    0.78823212414859
H         5.43525797023799    0.32294978567030   -0.42475371020758
H         6.67822208428104    1.50276567649530   -0.82330535957736
C         5.21703787700507    5.48611676147508    4.31877422592448
H         4.19854675568410    5.05666561902022    4.39223220903545
C         5.08377763129798    7.00904742014767    4.27169987661620
H         4.58534141858892    7.31691304283431    3.35533085203340
H         4.49352342843151    7.35570098002387    5.11680979375009
H         6.05811772679627    7.48924692140421    4.31696611980228
C         6.00506987563535    5.03998907040691    5.55369759945855
H         7.02835625816887    5.40709047885744    5.50905954921928
H         5.53492136351128    5.42168556503741    6.45690530363938
H         6.02545238830431    3.95344145369951    5.61023695719204

