91
CSD_code = WIRWUS | q = 0 | S = 0 | Stoichiometry = C40H44Cl2N2O2W | MND = 6
W         6.16780753138213    1.97171716734089    7.49855800967518
Cl        5.66131473763359    0.38722797860489    5.81402510148727
Cl        5.97806809598632    2.53872473906977    9.78550155677105
O         3.95367257686539    1.20373754725477    8.15473980871425
O         6.30363682565399   -0.22892596312085    8.61824821231770
N         5.51306236280632    3.40022545641767    6.61970268197597
N         7.94623917159799    2.04364151673631    7.35436425725059
C         3.01332150576079    2.20142428701429    8.52626388466182
H         3.07619413834589    2.98405179935501    7.77059306853791
H         3.25650226757246    2.61712671027663    9.51121925891440
H         2.00319988770796    1.77671201700625    8.54144315502886
C         3.99167716137814    0.14212244821046    9.09923210693990
H         3.00540437413234   -0.34171855607247    9.14773352543641
H         4.25759393222989    0.54130952021741   10.09108810373263
C         5.03754763584960   -0.87295978899331    8.65366232140432
H         5.06913967324069   -1.70726661130213    9.36948728057234
H         4.78828392925602   -1.25420061612753    7.65101355697098
C         7.33372492502213   -1.11146981967224    8.19395204095230
H         8.25737472184370   -0.53357815230276    8.17997236541663
H         7.12441778274369   -1.49471172983111    7.18898847747292
H         7.42567891170838   -1.94449807540089    8.89979940830773
C         5.66784445540657    4.37547936095438    5.71856398835127
C         5.06096034174546    4.26795263803273    4.44191524003318
C         5.33969237316760    5.19184293246740    3.45482678454457
H         4.85484488932560    5.08542879527529    2.49449715080333
C         6.18985014857883    6.27189307466468    3.68838987401564
C         6.79514150218279    6.37440766200780    4.93958125749965
H         7.48536283063219    7.18377019545760    5.13096952015744
C         6.56714756950298    5.44979969503419    5.94263319209241
C         4.21077721013444    3.09321691534210    4.17542750141446
C         3.08010045780817    2.84435799107217    4.94734380355658
H         2.78759578754132    3.56893616345559    5.69559074720007
C         2.31726294372119    1.71155859149179    4.73261382444112
H         1.44027909824741    1.52880279303776    5.33878091988596
C         2.67255772776261    0.81419074266576    3.73972155055831
H         2.08356620585203   -0.07707108027359    3.57862058118759
C         3.78388775192676    1.06355385431334    2.95296815965457
H         4.06298083182952    0.36587452196009    2.17688216100773
C         4.54799697946198    2.19547551733511    3.16764578785940
H         5.42698937419588    2.38181404815453    2.56721839925024
C         6.46303390353856    7.25810464251279    2.63732619683245
C         6.59593227544337    6.86528301569338    1.30629105365987
H         6.51459552689720    5.81928949875185    1.04912611274009
C         6.85577455547647    7.79456756339213    0.31717757975441
H         6.95928609825817    7.47175241133041   -0.70905895368930
C         6.98770410854382    9.13550575811938    0.63677532270867
H         7.18961379161204    9.86157027378883   -0.13707775483605
C         6.85917895502464    9.53898080029670    1.95525580499140
H         6.95862029137627   10.58408259067547    2.21181654339109
C         6.60067337131823    8.61073239031156    2.94584698413969
H         6.48398661268045    8.93665577190175    3.96921623804316
C         7.28889314069545    5.53223603045930    7.21915825404845
C         6.62081581459627    5.38631264562788    8.43538222851719
H         5.55053645129959    5.21401576092314    8.44235491824915
C         7.29749090198153    5.55642578983479    9.63085792879672
H         6.76356843422998    5.46724166809424   10.56594061260506
C         8.65237776939047    5.84403308740074    9.63033832725623
H         9.17413478982020    5.99997118115454   10.56384667806976
C         9.33404121664784    5.94248948864368    8.42862294708499
H        10.39541041299932    6.14314926563346    8.42319669990481
C         8.65828418812771    5.79260456305100    7.23356676464237
H         9.19422155489866    5.87350274503188    6.29987198572254
C         9.22899714307393    2.37410845665483    7.14326119938336
C        10.16994453014015    2.30885470232478    8.19780250073034
C        11.46353547519360    2.74319361002654    7.97382609347473
H        12.18322891986406    2.71248157945495    8.77896396056901
C        11.85489685452309    3.20678209544016    6.73091985840902
H        12.86825791860548    3.54671636090242    6.57500279753996
C        10.95349823280405    3.21067233667442    5.67793669489710
H        11.28342575685215    3.54270156450851    4.70556095463201
C         9.64665009966367    2.80261648368144    5.85564850492945
C         9.75526137029867    1.73341331875148    9.53237614566827
H         8.69023521330581    1.46416583026572    9.46243390201600
C        10.56448851442474    0.46900431460974    9.83956301575333
H        11.60769940994667    0.71946747896670   10.01689648291347
H        10.52331271122494   -0.23158419006811    9.00698012083986
H        10.17524776814604   -0.02245561714555   10.72925518476005
C         9.89806432633881    2.74828014858250   10.66469462312317
H         9.27380351420972    3.61327026124523   10.46040891904325
H        10.92982142507243    3.07690633069667   10.76581647321392
H         9.58129275303020    2.30471829365618   11.60666745526057
C         8.64936375870894    2.71298021476867    4.72695438620830
H         7.65152665931884    2.90455910787723    5.15691254449731
C         8.64576901018187    1.27661916765923    4.18721999071322
H         8.39192221148870    0.58097647012530    4.98661606200921
H         9.62581078840542    1.01578077716324    3.79096728266266
H         7.90581676402177    1.17124315387038    3.39731369380425
C         8.89482923395646    3.70947965468851    3.59774042617203
H         9.78599640362997    3.44924869937601    3.03059936314860
H         9.00482136229577    4.71739122093436    3.98890178021598
H         8.04720707868440    3.70582494446564    2.91644848462290

