97
CSD_code = WIRXAZ | q = 0 | S = 0 | Stoichiometry = C43H45CrNO4P2Si | MND = 6
Cr       10.35612537723737    2.22953945448751    4.41192712375942
P         8.63428649859557    3.31670233485850    3.26187354313618
P         9.16079992715068    1.73991710482364    6.37994043918876
Si        6.45515515182829    2.63965417610444    5.33943873875693
O        10.26797417419493   -0.61202698161418    3.47313065411716
O        12.35191978050189    2.55503621511443    2.21703733162155
O        11.29851772805912    5.01343493442254    5.02772122111498
O        12.76982052689415    0.95960460791075    5.62784282296380
N         7.51202210469187    2.18312652340077    6.67182574464244
C        10.14460896597276    0.48165287834936    3.82971409065286
C        11.50749714884864    2.45904708020287    3.00154190026416
C        10.84960294536211    3.95690087192481    4.87873580412783
C        11.80258428039978    1.46571502929795    5.24134589017851
C         9.27244088772782    4.80345063788994    2.40724720885696
C         9.95157351604145    4.58947459144419    1.20860709690382
H        10.00572537471973    3.58614309194948    0.80424964926571
C        10.55304395569030    5.63940624890538    0.54398419179772
H        11.07801058340476    5.46049532105921   -0.38267821797875
C        10.49022885913118    6.91951348578702    1.07217890622633
H        10.96533169477506    7.74157511845277    0.55771460914186
C         9.82364552811990    7.14002107605966    2.26435101066541
H         9.77875398098526    8.13535747232289    2.68246324340363
C         9.21972426996360    6.08881196226706    2.93266516337394
H         8.71505518267105    6.28167677471338    3.86854150660401
C         7.71003258527984    2.64343793601043    1.82998100175081
C         6.75409984026339    3.40523869036201    1.16446609011931
H         6.52903717109442    4.40731956215372    1.50318660031133
C         6.10473510607509    2.89354709268094    0.05698275706400
H         5.36228426788548    3.48936830411311   -0.45395493101730
C         6.41120726700741    1.62315510201955   -0.40524470657850
H         5.90377194579805    1.22775634887722   -1.27261416289610
C         7.37817602906949    0.86902664110938    0.23737003359706
H         7.63156723756829   -0.11460431390844   -0.12959449504904
C         8.02663961949997    1.37984087592473    1.34834742364576
H         8.79362795961266    0.80319037484623    1.84869490998215
C         7.30202348121722    4.01082177347633    4.30713094029721
H         6.58444563177929    4.55687301487890    3.69335754798757
H         7.80007525545604    4.71634454371459    4.97272688582673
C         4.81837502495318    3.32986491054697    6.03665598751563
H         4.01347132761986    2.62950931781163    5.84743050627849
H         4.54225566983715    4.26247116502400    5.55647585392868
H         4.85804656271071    3.50265628910144    7.10543257275626
C         5.99316905569755    1.21992782616755    4.15023371629020
H         6.86760215262704    0.77468320871260    3.68306085120910
H         5.37459359279949    1.61760077499240    3.34955800719452
H         5.41937576320857    0.43516280786095    4.63629499439523
C         9.98632270586213    2.12183660487592    7.97486830492292
C        11.13618760601568    2.90154929915723    7.97762559469435
H        11.48534159707081    3.34223402752237    7.05474591533248
C        11.84797785230199    3.10792063174110    9.14768795110598
H        12.74563389937988    3.70794788151551    9.12943534702254
C        11.40964941554787    2.54693069400840   10.33471416665116
H        11.96175503037850    2.70883542649383   11.24868230164585
C        10.26435105768229    1.76638439318579   10.34234001425869
H         9.92048417527629    1.31699339117235   11.26240962641442
C         9.56686131226486    1.54148693256595    9.17097921858019
H         8.69901149731225    0.90103015652973    9.18456965990821
C         9.20209462978962   -0.08928786975342    6.56604701745424
C        10.27947074778568   -0.70832673718792    7.19738689116246
H        11.04189190312141   -0.11434418208100    7.68097114602417
C        10.39263193495289   -2.08650443190202    7.20126872000285
H        11.23389495674456   -2.55008934243959    7.69544751578594
C         9.44210776752464   -2.86982165881167    6.56848195296401
H         9.53374866493381   -3.94578417108739    6.57483938091517
C         8.38694454306473   -2.26358186067863    5.90881581432769
H         7.65453925486727   -2.86476549759414    5.38943406346113
C         8.27904215884006   -0.88565206259993    5.89658311436227
H         7.47642158645256   -0.41802754077593    5.35027247217635
C         7.05128189194648    2.44951250884649    8.00285524205438
C         6.26066785631610    1.50590150901526    8.67248069568720
C         5.82023994865798    1.78652205700563    9.95933483633899
H         5.21883341895597    1.05988819408606   10.48388907790490
C         6.13399187960841    2.97902977718635   10.57783250150605
H         5.78324471181640    3.18258296469864   11.57858223515092
C         6.88948768761280    3.91543885648982    9.90195415198326
H         7.11717139470226    4.85488389193249   10.38001334846014
C         7.35858623489327    3.67203875800345    8.61824602231228
C         8.14140250764705    4.75666423800150    7.91654934840784
H         8.66905224772819    4.30935795955314    7.06396425879087
C         7.18173949831007    5.83491089433401    7.40145521167926
H         6.43467815415528    5.41368911134667    6.73514695856645
H         7.73667167827858    6.60728659882176    6.87198254126238
H         6.66371281048108    6.30049814966413    8.23758212935274
C         9.18628766126021    5.41177912166740    8.82362184492840
H         8.72392483649575    6.12852098560350    9.49843057501768
H         9.91522189790722    5.94610104147325    8.21842993935929
H         9.71033438759196    4.66897193667695    9.41716821073923
C         5.86345059747988    0.19350653783830    8.04113629607172
H         6.26002805845096    0.17204898694391    7.02637187118068
C         6.45028294566421   -0.99629685213278    8.80511575621982
H         7.53750975895801   -0.96681486253414    8.79640454769238
H         6.13932540253389   -1.92708835789263    8.33572820161432
H         6.11228292376864   -1.00328184515459    9.83873048223481
C         4.34052841525093    0.06485246549873    7.95748432551906
H         3.89809220084056   -0.00912873753451    8.94761380395218
H         4.07415880299565   -0.83116184238565    7.40077452094576
H         3.91158490000221    0.92709961364290    7.45413681847608

