58
CSD_code = WISDOT | q = 0 | S = 0 | Stoichiometry = C21H25CoN6O5 | MND = 6
Co        8.60368211249448   16.55909069182075    2.11646616302471
N         8.85570844178117   16.33857405422389    3.94232911871673
N         6.88294838012565   15.92678812808186    2.38255686541051
N         9.22826701122759   14.86242367772430    1.79160661101045
N         9.91996869886954   14.55512212345910    0.89446389252874
N        10.57112086126005   14.07770212682622    0.10000084281239
N         9.14303005841246   20.50397214860992    2.51542887742779
O        10.32509409059844   17.31504673013726    1.88023694720323
O         8.31919465941689   16.85049381502012    0.28770059034206
O        14.05320832380794   20.02336153623550    2.99135912704329
O         6.58571432001128   16.01658071087262   -4.04562815498908
O         8.02205456180962   18.54541275531401    2.57684518569741
C        10.82949242299447   17.68234566446038    4.19561819332331
C        11.05930983177668   17.83343954991236    2.79118928909588
C        12.16850884697949   18.62127401034649    2.38979864852760
H        12.33256601965660   18.70012161687313    1.32704707707841
C        12.98602785007774   19.23886234640094    3.30582502789193
C        12.73460824355263   19.09834748243305    4.68685132502784
H        13.39144537209367   19.59514632491234    5.38169256924912
C        11.68967980440524   18.32447140993703    5.10447580466314
H        11.50505911422391   18.20087697105136    6.16275986489104
C         9.75748849556255   16.88944006722892    4.67824654163530
H         9.70970494179920   16.74490822215979    5.76110813358930
C         7.83821049678819   15.50450554707996    4.53306148503974
H         7.73471665996832   15.68472143265524    5.61004870498702
H         8.11821707882257   14.45841420754480    4.36542178190253
C         6.54024859198681   15.79974577088036    3.78098560797865
H         5.79272770636683   15.01472151578996    3.94468238413662
H         6.13231422523234   16.75789441953056    4.12737063060969
C         6.02063715114667   15.59868676719347    1.47927542451474
H         5.05906934457473   15.19241867050344    1.80234118229807
C         6.21092821602343   15.73117908658613    0.08482835273685
C         7.38702960876914   16.35317500138313   -0.44072393732769
C         7.50690430304969   16.45391481344344   -1.84769166108429
H         8.41002341971597   16.91298658727198   -2.21614157290091
C         6.53374716232837   15.97027464428898   -2.69015132672577
C         5.37082111238806   15.37188236631160   -2.15812654342824
H         4.62416274949005   15.00698337535700   -2.84398422827837
C         5.22718773498329   15.26123217116129   -0.80689053200862
H         4.34131951098875   14.79650620959085   -0.39689631797690
C        14.43571639623395   20.12687760694793    1.64098119107256
H        14.65000616814231   19.14466237815784    1.21030261470876
H        15.34148826676172   20.73142967870655    1.63588975050172
H        13.66563703890172   20.62332584512946    1.04087696281155
C         7.73801552745185   16.54647505318923   -4.65646944759058
H         7.87230022003674   17.60390153753419   -4.40698675407327
H         7.57689812780255   16.44597794477256   -5.72883730583648
H         8.63413233248537   15.98936191332990   -4.36784281900785
C         9.89918755373535   21.47585185290669    1.77114398073688
H         9.89477964570142   21.22026574419465    0.71407570805114
H        10.93171400434606   21.49461170054445    2.12882406875516
H         9.46664154667021   22.47071217723810    1.90151937406322
C         9.09413134113382   20.69539556611326    3.94626884707969
H         8.51897112428999   19.88094184682742    4.38115813979676
H         8.61673626967653   21.64862456481309    4.18083895508943
H        10.10362632441535   20.68434564122341    4.36264569957510
C         8.62336127128564   19.41796515022175    1.95402474949761
H         8.76030930535781   19.36142904753709    0.86709830909992

