77
CSD_code = WISHIR | q = 0 | S = 0 | Stoichiometry = C34H32I2N8Zn | MND = 4
Zn        3.56536736515498    4.62308097501939    4.32843480730557
I         3.83478302588767    5.39962986646339    1.89439787085174
I         3.66239401062476    6.10648073070986    6.37552258050559
N         1.51102236111902    3.91966811251030    4.33436616058919
N         0.45185410357404    2.21311938304071    5.26062527560316
N         2.84155769700819    2.61268516412456    5.66500563087690
N         3.04125217982287    1.50038485041831    6.25551669082446
N         5.34397343623903    3.41675781025272    4.44815097474359
N         6.39768102149085    1.84791702304674    3.30154335697412
N         3.98760362661929    2.21403405171414    3.01869782856672
N         3.88813173779832    1.24278583767162    2.19013298487857
C         1.64711342723092    2.85576148631727    5.11276310097814
C         0.22213033943992    3.96592601358378    3.95857371093487
H        -0.14537178910669    4.73920735549228    3.31346369075919
C        -0.45194351035528    2.91450069334818    4.53123465375919
H        -1.48626353009964    2.63774096941088    4.48678091241606
C         4.23496231205126    1.34134931549713    6.90801755235059
C         4.65119610696447    0.02152841376383    7.13088466415812
H         4.03988569874155   -0.77865898758267    6.74294469684545
C         5.83620966535354   -0.22590333324675    7.78676886542728
H         6.16420003268208   -1.24511884809462    7.93579884253062
C         6.62117144828053    0.82085522157512    8.26915324456310
C         6.18036974699692    2.12985546004431    8.08187086737620
H         6.76574556504013    2.94814040762179    8.47532856199017
C         5.00968180880561    2.39745840729850    7.40991196530661
H         4.65885587499796    3.41037643065929    7.29876488805787
C         7.89082928142227    0.54841405273974    9.00921294527978
H         8.63602883400339    1.31097569864080    8.79349299886420
H         8.29321667075336   -0.42879181791274    8.75305983879255
H         7.70115412691096    0.56544269849839   10.08309701659395
C         0.20397681699830    1.04578604032546    6.06268986388168
H        -0.88135076300519    0.93957827336577    6.17284366483978
H         0.64570085410639    1.20390404520049    7.05231105454149
C         0.78538242138664   -0.21195634966453    5.45953628025496
C         0.73968053393757   -0.43478630901653    4.09077607860497
H         0.30694369943658    0.30485575545626    3.43121307195226
C         1.24995320046759   -1.60613672473151    3.55859517059655
H         1.20592469349200   -1.76999241578834    2.49325751792130
C         1.80940925200810   -2.56174933203180    4.38711299645604
H         2.20472894353013   -3.47406469244778    3.96774979560966
C         1.85593217447726   -2.34468373398705    5.75364261312600
H         2.28854991570970   -3.08906212115456    6.40635882125966
C         1.34683183074560   -1.17473352587580    6.28738587392744
H         1.38497221378861   -1.00414323160294    7.35341190381406
C         6.64219407804980    3.43833666736621    4.79245585297870
H         7.01960497890133    4.14431882544835    5.50509031704699
C         7.31113485703657    2.46833420993996    4.08878602002669
H         8.34806351356555    2.19839433470084    4.07956464364708
C         5.19636035393857    2.44758997914102    3.55547724511693
C         2.69865188797758    1.07244519651277    1.53784751976817
C         1.68532861308392    2.03972583241304    1.45489532110966
H         1.82343467338181    2.98587468671240    1.94907896899984
C         0.55606333565528    1.79380322883820    0.70964221825030
H        -0.21410265563235    2.54910115592480    0.64158901254413
C         0.39194221932498    0.58861734537654    0.02740412761451
C         1.40515706658715   -0.36536717273202    0.10192872117462
H         1.29329518450192   -1.29880066645868   -0.43203556373777
C         2.54635437016195   -0.13212218662173    0.83651078039633
H         3.33181650982635   -0.86904322913071    0.90508889302142
C        -0.83487123179054    0.34821948370035   -0.79192132041711
H        -0.93778350216588   -0.70344856710943   -1.04725173175828
H        -0.77691351876427    0.92126717795818   -1.71767606448264
H        -1.72604232316636    0.67433230203448   -0.25867096958375
C         6.66204880924650    0.81986136630455    2.33286490884067
H         7.74976590795022    0.74843399105376    2.21374876367469
H         6.22401216254672    1.12568524655999    1.37665574978936
C         6.10755657671179   -0.53206299831163    2.71567129744713
C         5.82373386354019   -1.45193641480821    1.71393171664327
H         5.97422164810700   -1.17487038672899    0.68057280626308
C         5.35876455418063   -2.71424877874629    2.03302103023495
H         5.14363824180001   -3.42264657092481    1.24659880794869
C         5.17116292582223   -3.06939367924066    3.35816550351180
H         4.81667408786824   -4.05790239457257    3.60946106150947
C         5.44905594286709   -2.15632782146146    4.35863856088867
H         5.31053709624651   -2.42973156011750    5.39342160258018
C         5.91818510983556   -0.89307218279990    4.04091205133421
H         6.13622618348804   -0.19148553967379    4.83413026169699

