52
CSD_code = WISHOX | q = 0 | S = 0 | Stoichiometry = C20H23Cl2N5OZn | MND = 4
Zn        0.05503014681676    0.76284830937677    3.86292325918136
Cl        1.46475222324758   -0.86711572272267    4.54630237449906
Cl       -1.13939671441559    0.58971794857085    1.99640638017799
O         1.63935779000369    1.79586327440653    2.75552159294696
N         0.25779398588240    2.20100873932125    5.32501113976938
N         0.58648829453480    2.11433109806397    7.50817113016545
N        -0.81817031252597    0.45853176685044    6.57150505309531
N        -1.23302034953122   -0.02491292791803    5.46254216963409
N         1.78130848401186    1.56331323473133    0.50840250209509
C        -1.97631275731747   -1.17353834503233    5.52322047561961
C        -2.54791712639887   -1.64279356338482    4.33303270289127
H        -2.39919956614074   -1.08531554307818    3.42114000342685
C        -3.29065893808921   -2.80314733164524    4.33849323645496
H        -3.72740456045164   -3.15825361964995    3.41673958439541
C        -3.48267815940612   -3.52807152395247    5.51185511061265
C        -2.90726739563893   -3.05773704073434    6.69503890318117
H        -3.04425847936301   -3.62051802256841    7.60762888266693
C        -2.16730815597740   -1.90077588362046    6.71113088853406
H        -1.70707771212433   -1.54356259363285    7.61928638064778
C        -0.03521991002178    1.54614742204262    6.44649411567177
C         1.09765481363116    3.19248899029969    5.66915777805615
H         1.49121185088579    3.86291875202153    4.93278905930186
C         1.31675567318028    3.15086703618689    7.02507408748640
H         1.92430108528630    3.76319609790266    7.65961405200911
C        -4.26481831457307   -4.80104337947430    5.51272137037074
H        -4.87437990010408   -4.88701746823957    4.61709992036523
H        -4.90668664707915   -4.85991153980991    6.38964639404303
H        -3.58265650397320   -5.65135058902519    5.54403411814810
C         0.61163570420547    1.57454278771580    8.84371528116075
H        -0.26307295502626    0.92507332034553    8.94079048287842
H         0.53854739026779    2.39517457742210    9.56272850205462
C         1.87999006602132    0.78176414060693    9.07272201752328
C         2.24692292245491   -0.21517469775698    8.17705683437407
H         1.63550735818523   -0.43312319372290    7.31383753748421
C         3.41384580020444   -0.93085687792093    8.37551315698136
H         3.68931083775882   -1.69519604959149    7.66577677849451
C         4.21782115742466   -0.66282222152179    9.47084678438899
H         5.12862790297792   -1.22205629566761    9.62507459424660
C         3.85314606507380    0.32654902977961   10.36767088387002
H         4.47642891422127    0.54113117919517   11.22329174131646
C         2.69070347199716    1.05092427194549   10.16623615939694
H         2.41155788980879    1.82631329330287   10.86630497767161
C         2.08038360568421    1.23568846728567    1.75700828835346
H         2.80575543654522    0.41061455840362    1.83941704744885
C         0.80690478809321    2.59225228223972    0.22698791410669
H        -0.12706049239087    2.14251575876223   -0.11525191697820
H         1.19479244125759    3.26911027677831   -0.53534801966376
H         0.61008157251098    3.13910409313747    1.14616736238903
C         2.24413842017525    0.80292207605104   -0.62174843640755
H         2.70010180097366    1.46892878924188   -1.35774378940684
H         1.40519157747376    0.28347487641411   -1.09131024537224
H         2.97911547975630    0.06717798226403   -0.30172660168970

