40
CSD_code = WISHEN | q = 0 | S = 0 | Stoichiometry = C15H13MoN3O8 | MND = 6
Mo        3.69636202025958    3.26364779553981   -1.15645164518297
N         3.19146543589181    1.17003048526600   -1.29485078315523
N         2.47757968575602    0.69598158787577   -0.23525744982645
N        -1.60790799851126   -2.21044047711325    6.24616391722409
O         4.77461317495746    2.77048566184278   -2.56329446472080
O         2.94856248262209    2.75193175363315    0.57760650581940
O         1.19355003410236   -0.01325804001321    1.98563435258593
O        -1.89310591974192   -3.38740084172191    6.16072960690763
O        -1.88727286667515   -1.50190051924242    7.19186028751543
O         2.32193441718554    3.77053443848717   -1.90303873391224
O         4.67659885602118    4.39979083073681   -0.48225008933068
O         5.71028955949355    1.98838734637052    0.08189981646172
C         3.89301422686595    0.79501416790500   -3.55463497165859
C         4.64601322636783    1.99648427166963   -3.62402804864155
C         5.27813975678606    2.33706963563214   -4.82700592306749
H         5.83842322979693    3.26095453477904   -4.85945599073222
C         5.16975192169030    1.51792683046084   -5.93024374882639
H         5.65668327907450    1.79682385412234   -6.85235711339241
C         4.43926886884875    0.33277181110360   -5.86502174489270
H         4.36443731399873   -0.30133470976369   -6.73435737363328
C         3.81262665592543   -0.02257783956838   -4.69384850474320
H         3.23985300818054   -0.93626733172194   -4.63633772187271
C         3.21908973369603    0.42636166042316   -2.35106911337671
H         2.67692787682546   -0.51881979072312   -2.32261618119209
C         2.38874629042915    1.59345488757428    0.68658534798180
C         1.61314473869099    1.32549391529048    1.95567502919484
H         2.27061336334466    1.56196476750301    2.80592140689542
H         0.75620381175340    2.01689430169361    1.97561951257665
C         0.50805624374123   -0.46480198015002    3.05777904658256
C         0.14687102898663   -1.81918243978051    3.01233572292061
H         0.43076771206391   -2.38853304513773    2.14278123939644
C        -0.54556268797068   -2.39276022779789    4.05007136676901
H        -0.82897914363023   -3.43374148285309    4.03032342548012
C        -0.89010967719770   -1.61669005092230    5.15572918054151
C        -0.54279805046386   -0.27303673713783    5.21106880449049
H        -0.82409274133169    0.30612887304450    6.07736917910290
C         0.15308355942149    0.30433455948432    4.16834599416836
H         0.41238198499040    1.34865857770135    4.22871928169495
H         6.45907232981354    1.98172685817333   -0.52571125407762
H         5.74870325794255    2.84689210733594    0.53101183192285

