71
CSD_code = WISJEN | q = 0 | S = 0 | Stoichiometry = C36H30As2Cl2Pt | MND = 4
Pt       -1.82905264567305   -0.00170511697117    4.56344010901353
As       -2.59315775071203    1.83495312972898    5.82306657674717
Cl       -0.49044321252251   -0.72363356721047    6.31354268953366
C        -1.66093389757216    3.45116864833830    5.31032893517674
C        -1.68333711596664    4.59747380735623    6.09816952403232
H        -2.23239065042696    4.59167546397831    7.03579514360471
C        -0.99789261913726    5.72967747772602    5.69470324141237
H        -1.01854284418234    6.61987280347225    6.30720149945197
C        -0.28217759891309    5.72116818347078    4.50767020826170
H         0.25309870894824    6.60641814439080    4.19672670869552
C        -0.24665944916046    4.57931763775649    3.72441937959836
H         0.31758224113803    4.57288847553211    2.80309218188007
C        -0.93355072680827    3.44658662999278    4.12600599664255
H        -0.91731370637546    2.54011519113528    3.52299660239113
C        -4.47506366553699    2.23320293261275    5.58562406154383
C        -5.33747703252604    1.14304583121981    5.53120248090917
H        -4.91881230529862    0.13989124068895    5.60102338124218
C        -6.69664013394305    1.33361786978178    5.36611985821029
H        -7.36310830806875    0.48434742002215    5.31990319946158
C        -7.20077212347315    2.61939667463234    5.24937077125147
H        -8.26152419662661    2.77243634944491    5.11416413250662
C        -6.34599985738802    3.70772418981158    5.29437005053575
H        -6.74051051034589    4.70862468390289    5.19225703194128
C        -4.98425079953098    3.51732283316217    5.46232970777760
H        -4.31175548313596    4.36781305349390    5.48329911065728
C        -2.39931791395146    1.88598405705725    7.75234863177442
C        -3.48130734060799    1.74554716751140    8.61157265307726
H        -4.48031947653818    1.62944256135075    8.20178697445304
C        -3.28497306150122    1.75664126682905    9.98263281005481
H        -4.12968306000865    1.65037198699249   10.64835681124464
C        -2.00864718060442    1.89923132870735   10.49961340571025
H        -1.85734476734683    1.90396411857441   11.56916607387186
C        -0.92428773149294    2.02957162192596    9.64614081861055
H         0.07241101443372    2.13286419468764   10.04989114186925
C        -1.11843623905719    2.02043921287483    8.27780752709516
H        -0.27619035076547    2.11105455196204    7.59910704205760
As       -1.06191726192791   -1.83514519443385    3.30157676843217
C        -1.99430771716320   -3.45103708847699    3.81483625879448
C        -1.97203145483892   -4.59731280342153    3.02696206366309
H        -1.42309732930316   -4.59149366781204    2.08926770024546
C        -2.65753281190393   -5.72948150149749    3.43041093628766
H        -2.63704358523576   -6.61962428693787    2.81782717135460
C        -3.37311539293086   -5.72098605417215    4.61752383443255
H        -3.90842148870018   -6.60622199113665    4.92846982969447
C        -3.40844499192370   -4.57917465297182    5.40085403496201
H        -3.97255467757803   -4.57280885030861    6.32226372575269
C        -2.72155379084093   -3.44642756491903    4.99923977361661
H        -2.73763391260169   -2.53996218425830    5.60225943677870
C         0.81988625531571   -2.23316431088551    3.53971159698500
C         1.68233407181274   -1.14302305588089    3.59377271744099
H         1.26369323031782   -0.13986441720740    3.52383404729537
C         3.04150216164427   -1.33362554963477    3.75873211957016
H         3.70798253012786   -0.48436629139916    3.80498120329762
C         3.54559049283714   -2.61941359956314    3.87561878721824
H         4.60632495269590   -2.77247177828592    4.01091193901434
C         2.69079176349305   -3.70772543799239    3.83074803338118
H         3.08525736323579   -4.70862465443972    3.93303997153683
C         1.32902532200936   -3.51729182602825    3.66298486925424
H         0.65649842956174   -4.36776079986128    3.64200636707852
C        -1.25602966010270   -1.88600372449189    1.37248375227325
C        -0.17406498354285   -1.74578896430144    0.51325052914785
H         0.82498692745589   -1.62988317164685    0.92300867522720
C        -0.37051765485811   -1.75687322782947   -0.85776678825492
H         0.47414647603614   -1.65067085761552   -1.52355399772558
C        -1.64692992262940   -1.89921655526502   -1.37461652002603
H        -1.79833927080844   -1.90380649441382   -2.44414569589667
C        -2.73124831653322   -2.02946880361791   -0.52107068032413
H        -3.72800708717161   -2.13252960109056   -0.92471106015766
C        -2.53697286500371   -2.02037034099197    0.84721560464997
H        -3.37912388094768   -2.11092733476624    1.52604884565423
Cl       -3.16415012932011    0.72403458161245    2.81207767704887

