98
CSD_code = WISJUG | q = 0 | S = 0 | Stoichiometry = C33H58N3NiPSi2 | MND = 3
Ni        1.92171336817191    3.23415323808690    4.16032682527956
P        -0.17794663876524    3.77302905750722    3.88343478968162
Si        3.57025318381090    2.46702772068284    2.06341891291168
Si        1.91959328627888    0.08187991004199    2.98583324874969
N         1.90108689604461    4.70631201552101    5.38754179277618
N        -0.30815073344848    5.09195436658672    4.86814519101940
N         2.32363727621147    1.76097190157776    3.03628183582404
C         0.75872524994150    5.34747487852197    5.59602102142776
C        -0.76386437577320    4.40220559426410    2.20922989329409
C         0.23041011609165    5.50880978855601    1.85721263979606
H         1.23359848466566    5.09082001282732    1.78399860926146
H         0.22296692508555    6.28261992684501    2.62314364669015
H        -0.02580357657817    5.96459775139033    0.90163877207371
C        -0.66257570089254    3.29459165193144    1.16723458320794
H        -1.46378959010650    2.56948763014110    1.27755886478198
H         0.29224966336430    2.78103070874208    1.27267943794492
H        -0.72739791775225    3.71617446817547    0.16467023585096
C        -2.16964633902546    4.98148612097641    2.30287841237612
H        -2.91674542172227    4.19504631189848    2.36580135587830
H        -2.38506135007615    5.57819314275820    1.41693024038874
H        -2.24910546780014    5.61857728355586    3.18044034768783
C        -1.41184867990645    2.61973010465648    4.73913218952560
C        -0.61535741220675    2.15001253324616    5.95862624963501
H         0.36589137018842    1.78426028411816    5.63533361838441
H        -1.13636407965965    1.35130843042581    6.48419620481337
H        -0.47280580478650    2.98090334673619    6.64853727159843
C        -1.77950693933483    1.43462688872750    3.85963075648039
H        -0.88359458990676    1.00234326370571    3.42482652489957
H        -2.45517711490488    1.73462092245891    3.06223662561398
H        -2.28587501162456    0.67336398440980    4.45293006522445
C        -2.65805290663124    3.36181061638547    5.21316210153825
H        -2.37992431753919    4.31396576340700    5.65774480088769
H        -3.17045383552663    2.76219580037462    5.96454877930522
H        -3.35273853537939    3.54595915793763    4.39995340986760
C         0.55852058599725    6.30938156844738    6.70182464100026
C        -0.35138797886964    7.35045963963633    6.53526650684285
H        -0.84616182167420    7.45979929671971    5.58286523867596
C        -0.60983135239223    8.22675231677377    7.57147359111290
H        -1.31075346330597    9.03620477096088    7.42992658828574
C         0.02731733531138    8.06715887239810    8.79161329976581
H        -0.17289327037684    8.75236125620954    9.60211605878961
C         0.91779647521839    7.02199571904680    8.97049266679531
H         1.40930195744896    6.88650673744822    9.92275836642287
C         1.18355344018914    6.14536880282470    7.93367071988156
H         1.87286633273848    5.32978652978004    8.08918399358880
C         3.13252539040564    5.05532788378793    5.94693925378094
C         3.90578863510597    4.03510441663762    6.54135655758488
C         5.09962736519164    4.35971638165649    7.16134266414584
H         5.67812349463245    3.59087665496363    7.64933486673354
C         5.56760303499001    5.66105545540817    7.15879952074823
H         6.49720121605334    5.90430531361570    7.65155321112270
C         4.85818683539791    6.63874111025357    6.49013324904525
H         5.25836602790570    7.64018070751644    6.44738379211921
C         3.64914671193487    6.36480365725004    5.86712187333224
C         3.42657403802060    2.59783832618874    6.51252119830414
H         2.72359047001961    2.47417900091215    5.64314187352840
C         4.56439527977897    1.60244120943052    6.28937039062586
H         4.15770372473283    0.62842762203126    6.02511537632600
H         5.16909914618527    1.48304342685497    7.18617533025346
H         5.20594227982345    1.93549061544869    5.47679058288147
C         2.66496989779107    2.26654662005135    7.79802620473195
H         2.32539920251015    1.23293844901913    7.78583877649023
H         1.79526112916633    2.91051178593795    7.90903687965489
H         3.31222851153273    2.40706276486073    8.66274423418944
C         2.98147217159223    7.46472863832194    5.07209112166549
H         2.01570079118347    7.10929034135622    4.70359180425443
C         3.84108027914850    7.82002421678667    3.85343832066996
H         3.34430679535250    8.58471586956681    3.25979052413143
H         4.00179359346902    6.94670200722620    3.22812427336499
H         4.81129026924706    8.20145693809977    4.16308826695350
C         2.74312464461109    8.71984084543043    5.91575345119179
H         2.11659962659124    9.42112152686466    5.36874407698884
H         3.68327333239858    9.21575925933499    6.14472314244166
H         2.24929020412905    8.47496162428822    6.85174048761448
C         3.12954071816915    2.48895583251883    0.19915339341026
H         3.99672643739989    2.75874473923705   -0.39539219466767
H         2.33587398892183    3.18915605025831   -0.04000952209412
H         2.80460948482601    1.50484935024488   -0.12038618363432
C         5.30950069732789    1.68266451664059    2.19282018741233
H         6.07197196647480    2.41499773760648    1.94375981622378
H         5.41555798544938    0.85464381112303    1.50310078280082
H         5.52223077509158    1.31001717437327    3.18848676835127
C         3.85461200715086    4.28438657994122    2.63893478801132
H         4.14065314155601    4.90041187933317    1.79140552218416
H         4.65338216266038    4.34669826758045    3.37415864200751
H         2.95098319108523    4.73848224614434    3.07390798715236
C         1.30696759748475   -0.58397620144967    4.67867984595206
H         1.54496822582750   -1.64076507722350    4.75599319509121
H         0.23615964524498   -0.48776684025234    4.81021663066366
H         1.79061861082792   -0.08449240063896    5.51213512105844
C         3.43229929652505   -1.01013186827173    2.57758583484085
H         3.14745279101259   -2.05745389162019    2.60349795166411
H         4.24573417546617   -0.87149632234664    3.28009020891759
H         3.81051657373047   -0.79915158854176    1.58428791390327
C         0.64524409769686   -0.37261680311311    1.62333881154021
H         0.10383022393230   -1.27717713306786    1.88432367028912
H         1.15749269143006   -0.56259846011336    0.68493727470034
H        -0.08475830506943    0.40570564516577    1.43519132358976

