81
CSD_code = WISJEQ | q = 0 | S = 0 | Stoichiometry = C35H43CuN2 | MND = 2
Cu        2.90936342871757    1.93976330435149    4.44385617058754
N         0.54377033567688    2.55335099989938    2.63296131545568
N         2.44236513655148    3.31974400366411    1.99876755612595
C         4.32813389986139    1.51093456774319    5.70262658254480
H         4.14971565635223    0.92421428428585    6.61505266384707
C         5.61026630707201    1.89838011921712    5.57359804734457
H         5.90167453069785    2.48868489197317    4.70469777556087
C         6.72608240081060    1.63487712792006    6.47657024359550
C         7.98345758058528    2.15978442772590    6.16372377945303
H         8.09546363481317    2.74442338721682    5.25914978802913
C         9.07568494362649    1.94854673738278    6.98101991947499
H        10.03756953934529    2.36691809937387    6.71577732247658
C         8.94293635763784    1.20199577586860    8.14022662731700
H         9.79572358117604    1.03464854350720    8.78293697317666
C         7.70546981863304    0.67161136965956    8.46701758686585
H         7.59315022253683    0.08654639993514    9.37007098350907
C         6.61418052312670    0.88420381388625    7.64881261829463
H         5.65946436045354    0.46008390678174    7.92382055871166
C         1.84844756281713    2.60375679326867    2.98070892288442
C         0.32863195549981    3.22395498112870    1.45671268233643
H        -0.64369812037199    3.29574571514303    1.01478143384957
C         1.52850594717839    3.70737580631835    1.05656195632655
H         1.80468496083803    4.28282684574929    0.19733030850841
C        -0.46501301655811    1.90288073665403    3.39513992887073
C        -1.18693511904660    2.64817698349984    4.33040191352342
C        -2.14898263265726    1.98965932752458    5.08312753453387
H        -2.71363632214575    2.53230072328687    5.82421922822304
C        -2.38639272387251    0.64015754879691    4.90256604979991
H        -3.13578291495648    0.14274803340712    5.50011245558631
C        -1.66483701553735   -0.07748481088849    3.96849059737764
H        -1.85510406338821   -1.13208691256035    3.84678148174012
C        -0.69211477100152    0.54047791118257    3.19417801421695
C        -0.88326292314971    4.11067848042659    4.55857254947417
H        -0.34385706503130    4.50290717115012    3.68969673460929
C         0.02718890151223    4.24515203484421    5.78286685576783
H         0.94678338298139    3.67926238497451    5.63907235975775
H        -0.47243648257601    3.86442891720159    6.67046760715306
H         0.28436729556222    5.28880235355993    5.94890686657965
C        -2.14855024180604    4.95257167574471    4.72664859737807
H        -2.64933831614642    4.73173655845804    5.66516380044728
H        -2.84411481488477    4.76898401890548    3.91019121066180
H        -1.88873984591776    6.00892373938588    4.72761636180205
C         0.12265036468669   -0.25330526092191    2.20037934651227
H         0.69123139602757    0.43751232345057    1.56929786690912
C         1.12355340694830   -1.13383533874284    2.95279899907906
H         1.77971574596316   -0.51905924433466    3.56750965415542
H         1.73454889657539   -1.69533126229452    2.24988910814001
H         0.60480007591675   -1.83591823890066    3.60083732915603
C        -0.76317135873614   -1.09385681865680    1.27933907862140
H        -0.15595663391195   -1.55235113767780    0.50195353016513
H        -1.52105695790761   -0.47356660744567    0.80473084775115
H        -1.26197805870129   -1.88794691691178    1.82790842284474
C         3.83467019473157    3.61336609688583    1.96902088380256
C         4.30380462807131    4.74546747256755    2.63765309007491
C         5.66665533148927    5.00631620552192    2.60045162081962
H         6.05829364870693    5.87035474923880    3.11407899192563
C         6.53127922021380    4.16479492459132    1.92788099562424
H         7.58981822536108    4.37819392202598    1.91637258061016
C         6.04889866908116    3.04139538244696    1.28470849241436
H         6.73734288697228    2.38078931936265    0.78148933356368
C         4.69302904243516    2.74531556936263    1.29139995928478
C         3.37742852351110    5.65220030097460    3.41218217031116
H         2.35206757278769    5.27833465538296    3.32802980267207
C         3.75441215250520    5.63736682220384    4.89515383030182
H         4.74020560856804    6.06665711763216    5.05139894000387
H         3.76448219676974    4.61489852801661    5.26890552893689
H         3.03336691260534    6.21267699637008    5.47160086360250
C         3.40429724170993    7.07435144215444    2.84789859139846
H         3.12983893118664    7.07444324875250    1.79444555432023
H         4.39421322420082    7.51240963272410    2.94316528189860
H         2.69965175507235    7.70265988121731    3.38828907307359
C         4.18305014063582    1.48723442344107    0.62949241050350
H         3.08884950062869    1.47783567914515    0.66565075844175
C         4.68611129174171    0.26742687111930    1.40526397629077
H         4.39517319190597    0.34214043690445    2.45175470724703
H         5.76978732852915    0.20078853635183    1.35870006809978
H         4.26467333549031   -0.64469813765553    0.98844626066215
C         4.59679705519665    1.41753423630027   -0.84157969506311
H         5.67604349124475    1.34450716439019   -0.94268713569933
H         4.26122046837131    2.30416248364063   -1.37643327953761
H         4.15241547872405    0.54248576468949   -1.31087980319922

