49
CSD_code = WISKIV | q = 0 | S = 0 | Stoichiometry = C20H23ClIrNO3 | MND = 8
Ir       -2.73540166095826   -9.27982244911703   -3.42047848020381
Cl       -3.25901462297551  -11.03715738515539   -4.85681399752770
O        -1.38761086205470  -10.59135709895569   -2.46358136520837
C        -2.44573006261467   -7.14265905588679   -2.75208250057117
C        -3.52511898313886   -7.20104152764713   -3.71775262791093
C        -1.25858676204264   -7.56971872177911   -3.39521767168717
C        -2.99391512875292   -7.68154072048662   -4.94770224452736
C        -1.59939756772585   -7.98579994868049   -4.72787496965971
C        -1.71701836127854  -11.07944410537440   -1.34482133203041
C        -3.13167695477469  -10.58881900214956   -0.83368449355855
H        -2.96141635680522   -9.69852315089228   -0.21948955394621
C        -7.18774279654468  -10.19922370295041   -4.88679980353306
H        -7.29618269837755   -9.42759347662485   -5.63427660641459
C        -8.05999976632688  -11.27695131164312   -4.87535375544628
H        -8.84568127477685  -11.34397399660794   -5.61317155109816
C        -2.55631621741556   -6.53411745862348   -1.39171960822860
H        -3.54050681183249   -6.71432908367158   -0.96480967164325
H        -2.40893990365639   -5.45399695410384   -1.45374977204490
H        -1.80639729816057   -6.94204662124438   -0.71791018909776
C         0.11580431302567   -7.61607350568513   -2.82089360548135
H         0.42441904202431   -8.65138532499030   -2.67228499570492
H         0.16037279910258   -7.10251085799550   -1.86421916928961
H         0.82182018338343   -7.14940095889079   -3.50652880089254
C        -4.88012455111043   -6.61033857499705   -3.48612462790091
H        -5.56144803454350   -6.84685345140780   -4.29893901024536
H        -4.79210842560566   -5.52488418822016   -3.41539288013019
H        -5.31676047846932   -6.97144814111887   -2.55655828646706
C        -0.62864554873472   -8.38416555341310   -5.79040135143829
H         0.22344068802786   -8.89848174313435   -5.35418227408927
H        -0.27030477198056   -7.49998455459141   -6.32169703331322
H        -1.10429576129909   -9.05051545724572   -6.50549009983916
C        -3.68047693581794   -7.78785248075324   -6.27055290772613
H        -3.70913091908728   -8.82766797732693   -6.59596837768622
H        -3.13113350734337   -7.21197326586757   -7.01467938524351
H        -4.69926971055064   -7.41392585206389   -6.21956329932045
O        -1.08161607302612  -11.83428748514275   -0.64501153382758
C        -3.92268809707842  -11.69004330101576   -0.12209750620265
H        -3.34049453559216  -12.61574969592881   -0.05962105298288
H        -4.26957609651560  -11.41051083602886    0.87613742941234
C        -6.91049920901405  -12.19380311227688   -2.98091138919553
H        -6.78786349667109  -12.96850576210541   -2.24050225092484
C        -6.02615755387258  -11.11381117798329   -2.99324127571266
O        -5.05940504239600  -11.88808587236923   -0.95958839082554
C        -4.96406951313593  -11.05908437541959   -2.00254028421765
C        -7.92000736281400  -12.27117183315702   -3.92059575586045
H        -8.59655704797475  -13.11261314074108   -3.91300582699086
C        -6.17543682280572  -10.11325798369316   -3.95269532580977
H        -5.48652069840880   -9.28534767637046   -3.96095402177120
N        -3.94671274149087  -10.26165008846352   -1.98870651598231

