92
CSD_code = WISKOB | q = 0 | S = 0 | Stoichiometry = C29H55FeN3P2Si2 | MND = 5
Fe        2.39126459542796   12.35300403390192    4.45515296562994
P         1.94617050440328   10.57266850215837    3.39692203619748
Si        1.28027523727276   15.14421740747605    0.57780173974480
N         2.46519610615490   11.25251799902301    6.01646813920139
C         2.18533108886810    9.93036713512680    5.93913470802183
P         2.92963639301182   13.96040357714521    5.73079799019132
Si        7.18342563609925   11.80561830523405    3.37890521149650
N         1.86214553529289    9.43738328428915    4.69016827043211
C         2.19596622233587    9.11395124909835    7.06699839041629
H         1.94891632201358    8.06938873896131    7.00096674955835
N         3.11608055162163   13.12321980313568    7.22793527050004
C         2.53481040677919    9.66404212535326    8.28987791924811
H         2.55235161166653    9.04748859417528    9.17517796184452
C         2.85359697212973   11.00635795074488    8.37086229854918
H         3.12882346944669   11.43664462503305    9.31725502618244
C         2.81750815344412   11.78005026739855    7.21260282205990
C         0.18382216933365   10.65494113333319    2.74895282621190
H         0.28067963728115   11.22257958667087    1.81529422304927
C        -0.55274461321220   11.52986883801018    3.76200445130086
H        -1.57946382996996   11.72107896160929    3.45290090786065
H        -0.03113570115769   12.49065091327788    3.83997999805225
H        -0.57282273019604   11.04867715483929    4.74180272523549
C        -0.58243039932510    9.36570936620706    2.47629114535782
H        -1.54134704196720    9.60661934114604    2.01744966509338
H        -0.78173160078768    8.82721951429107    3.39972000349022
H        -0.04692973996668    8.71095598424465    1.79231248619439
C         2.84113577192597    9.69379438614767    2.02537547316213
H         2.17554599190681    8.95841509354079    1.55319156786004
C         4.10654809523258    9.01227049283507    2.53407286994442
H         4.70566684927938    8.67250623372154    1.69094974719806
H         3.88548658141742    8.15138746352841    3.15963194057489
H         4.69153170034354    9.72750748780514    3.10845341626601
C         3.19514749532455   10.78042381910137    1.01266201073603
H         3.71878993977434   10.35087913554780    0.16044437900704
H         3.83425992045534   11.51884128748284    1.49210017970705
H         2.30605480736928   11.29352536902677    0.65277309942652
C         1.56520932976326   15.16097991015338    6.21524307886461
H         1.85011234323764   15.71769465445767    7.11736932582495
C         0.32766947674738   14.31761592962688    6.50738093652792
H        -0.51413474997859   14.94609672069080    6.79580239556682
H         0.51183159323843   13.60496255350604    7.31112562814735
H         0.04801942446961   13.76258497146936    5.61095982425892
C         1.28514629709504   16.13712673609515    5.07863219939504
H         1.17794523010506   15.59591349356602    4.13835620483941
H         2.09157988347212   16.85874034089906    4.97350804176729
H         0.36474912755516   16.68748520838699    5.27292399062124
C         4.41543412192715   15.08460087261049    5.65104303495875
H         4.20231592193856   15.99986460091047    6.22257606537390
C         5.67503166986290   14.41025857791711    6.18719766286546
H         5.77564633960975   13.42636192344765    5.73485276925635
H         5.66183168552949   14.30580605255927    7.26849588539135
H         6.54758093952837   15.00375637617698    5.91847668491777
C         4.60859915583561   15.43559102385091    4.17660437265579
H         4.86178565824865   14.53127086656538    3.62936742802074
H         5.41041718305293   16.16269004680297    4.06004838158441
H         3.70072443489362   15.83869503653686    3.73696807538031
C         1.60825733967236    8.02138103258708    4.52842091910051
H         1.47304920614738    7.81153883555654    3.47101919762890
H         0.70234425822251    7.71767394499003    5.06318078652873
H         2.44427536318961    7.42121628488282    4.89936113764799
C         3.38529615606261   13.78634745022450    8.48521854878798
H         3.58432576397601   14.83717596431990    8.28680480188843
H         4.25918298337278   13.35597100229213    8.98151877542793
H         2.52982260475271   13.71827807909472    9.16612080802393
C         2.19880681252264   13.41645975913387    2.92835821835310
C         1.83376824088501   14.10762540727461    1.99141024449898
C         2.64233717662075   16.37789999223565    0.06215902975269
H         3.55572943658537   15.85342023562677   -0.20013192630999
H         2.88014403470266   17.05814354493362    0.87446597535244
H         2.34509437325316   16.97660361348402   -0.79470845697491
C        -0.28342027562056   16.13177588240054    1.07387806202661
H        -0.66957865450513   16.71849011836214    0.24482392282586
H        -0.07019196614080   16.81674868647551    1.88952265864086
H        -1.07783884902951   15.46853108372236    1.40409917316747
C         0.84159628364984   14.03891653851793   -0.92063267474103
H         0.51850114468025   14.62557072339427   -1.77635782600089
H         0.04078169330053   13.34602600856619   -0.67735916717966
H         1.70092829512899   13.45114773238060   -1.22964148311098
C         4.21783364906602   12.10085696831446    4.07342922355930
C         5.39520405656087   11.94416732543117    3.80106555750071
C         7.86343361606469   13.50500431497830    2.82992371000945
H         8.89808858243706   13.43868791436028    2.50407369077344
H         7.81849794304043   14.22696382264073    3.63912742496282
H         7.28187600846221   13.90436569710576    2.00481662759880
C         7.46395885296026   10.55742750246651    1.95774841244951
H         6.82023698673332   10.78170873235787    1.11284484050010
H         7.25037548478142    9.54089804401377    2.27420857429019
H         8.49137211309906   10.58191245610568    1.60426025787570
C         8.17024272646940   11.21160913400066    4.90702187761099
H         7.78724876045429   10.26372683489690    5.27374805041711
H         8.10198954371133   11.92712916224314    5.72123050432905
H         9.22337307862306   11.07392911444994    4.67754792263167

