71
CSD_code = WISKOY | q = 0 | S = 0 | Stoichiometry = C36H30As2Cl2Pt | MND = 4
Pt       10.28956083493158    0.00156647546549   -0.00074817823922
As       11.55980378693097    1.29158312977868    1.50433522382682
Cl        8.44617321198775    0.12812983959034    1.40218258409163
C        12.65556149560390    0.12845113097417    2.59491317165206
C        13.25715289538888    0.56012806821350    3.77257895815809
H        13.10375128709522    1.58182867080692    4.10893305674059
C        14.03204229803541   -0.31292645835455    4.51568285148894
H        14.50051448416048    0.02525055221365    5.42905157934980
C        14.20499878610700   -1.62102138201855    4.09113463840277
H        14.80973778903980   -2.29985936272698    4.67451261364245
C        13.59927611069747   -2.06030725472040    2.92545462148089
H        13.72963058058248   -3.08218941502493    2.59987251276910
C        12.82558713788245   -1.18740918649284    2.18026937134502
H        12.34153237251590   -1.51517418095775    1.26103705441764
C        12.80211618037189    2.52607317176531    0.67280009019002
C        12.34075688029861    3.21382872148427   -0.44474673613598
H        11.33299872137195    3.01229801923022   -0.80496987220033
C        13.15918947209225    4.11603349129335   -1.09828949384958
H        12.79888429835089    4.64477097748937   -1.96895254213140
C        14.44873513737675    4.33185976669062   -0.63861604094954
H        15.09371745701454    5.03117469170592   -1.15031565046959
C        14.91585588439661    3.64417894255751    0.46859611068700
H        15.92518872266204    3.80655558479786    0.81891865193133
C        14.09522092611243    2.74188990585191    1.12524001369435
H        14.46449180023587    2.19190372824049    1.98380243633285
C        10.71560588003939    2.40531041484515    2.84951460938551
C        10.67523054581309    3.78948450337217    2.73970324160579
H        11.15707127161969    4.27466797999568    1.89596096471179
C        10.02635098782763    4.54428226077791    3.70276602760053
H         9.99946145177287    5.62112756699733    3.61500847379426
C         9.40908408289496    3.92036096320733    4.77346906347073
H         8.90068744630497    4.51056017202500    5.52185134180527
C         9.43739715100971    2.53889569513067    4.88209654895309
H         8.94891682664650    2.05164727826228    5.71337631619022
C        10.08523086962641    1.78385874454637    3.92247842063142
H        10.10373478039833    0.70096078126950    3.99143675200788
As        9.02218614750020   -1.29219955512856   -1.50493306416124
C         7.92676253987629   -0.12837896089468   -2.59485256646349
C         7.32496454761820   -0.56013958427574   -3.77235491177414
H         7.47819597851398   -1.58190159619595   -4.10860875292943
C         6.55005336645331    0.31290169840521   -4.51542339928935
H         6.08157928893482   -0.02528498034984   -5.42878726435566
C         6.37723140735004    1.62104079624671   -4.09093919482616
H         5.77261076736016    2.29991963400048   -4.67439044062342
C         6.98307291595417    2.06036273599601   -2.92533249780707
H         6.85292118400648    3.08231762168164   -2.59989527897396
C         7.75682649404882    1.18747547088790   -2.18018148324049
H         8.24101331420754    1.51520938918311   -1.26101630543431
C         7.77979890034921   -2.52593525023102   -0.67250277284057
C         8.24124221315910   -3.21410396613435    0.44475622802202
H         9.24911958852052   -3.01286500918598    0.80482156392422
C         7.42276666494188   -4.11636068082244    1.09816996823262
H         7.78308533709172   -4.64531004055302    1.96870291450321
C         6.13312784331011   -4.33186454542168    0.63860778926848
H         5.48808719263052   -5.03114794343986    1.15026784395175
C         5.66601957940758   -3.64396326954588   -0.46847274062618
H         4.65660854359563   -3.80607362818482   -0.81868667965729
C         6.48669234240814   -2.74159704359857   -1.12497095778774
H         6.11744359477254   -2.19143143725756   -1.98343239503383
C         9.86658164145050   -2.40561794371873   -2.84979925449384
C         9.90697567780330   -3.78970049295385   -2.73985982310297
H         9.42529461932837   -4.27482153056595   -1.89598675610128
C        10.55571605461207   -4.54443668094282   -3.70299330748601
H        10.58266537457173   -5.62126517364653   -3.61520541897450
C        11.17282430914233   -3.92043750207648   -4.77375468072551
H        11.68114355493081   -4.51060056189836   -5.52219384296489
C        11.14449952009156   -2.53896006509915   -4.88237667664565
H        11.63276322157435   -2.05165041104854   -5.71372804057862
C        10.49678796918175   -1.78399700533703   -3.92269068945558
H        10.47810171533286   -0.70109445470915   -3.99160248249842
Cl       12.13498674477061   -0.12786202146531   -1.40069341543538

