73
CSD_code = WISNOD | q = 0 | S = 0 | Stoichiometry = C34H28N4O6Zn | MND = 6
Zn        9.79171350710202    4.26692989831684    2.29363354975609
O         9.54789587236627    2.98600037799230    3.84185828883295
O         7.87417910061382    3.97493139072021    2.87505540383428
O         3.20709720601590    2.72949724781637    3.47943533543376
N         5.45831351814856    3.08164168381718    3.31731005453719
H         6.19215953391745    3.60314638481487    2.83075321487002
N        10.32186332402204    5.90177364044221    3.52786510422336
C         8.31092776100210    3.12067723905859    3.70436827539909
C         7.38432406742967    2.30277487671326    4.51972742396886
C         5.98729309795192    2.29386470617677    4.32353885689808
C         5.19773445163253    1.47955349576756    5.13737935720906
H         4.13131574404449    1.47362139827063    4.98447217369562
C         5.77290042335253    0.69690720800497    6.11763593342254
H         5.14242474675492    0.07524235982544    6.73628992153248
C         7.14732288395784    0.69984539581077    6.31029841516138
H         7.59259068243614    0.08204700816507    7.07535378402404
C         7.94029578577171    1.49679738489419    5.51180603683567
H         9.01282517036258    1.51526473102185    5.63142849945963
C         4.16243569974298    3.25226624746940    2.93568261829839
C         3.99229416734092    4.16549157053087    1.75780606524199
C         5.19314388439500    4.70674407764478    1.04174575002172
H         4.87400653334722    5.29617400291758    0.18443850039305
H         5.83342159778468    3.89999556964344    0.68730523867836
H         5.78843812253395    5.34592266497749    1.69387842508939
C         2.74941840968611    4.45275229588616    1.38408083099096
H         1.91392112242197    4.03938906731970    1.92306980118536
H         2.52971916889469    5.09304314664662    0.54643969178075
C        10.87452889634102    5.86826415396400    4.71602769651151
H        11.04010532959936    4.88490569898525    5.13146040427633
C        11.22738331249644    7.02923735546591    5.41396800700228
H        11.68511874896249    6.95068057280247    6.38720433731948
C        10.97681709852916    8.25421718502821    4.84418536302954
H        11.22784932146031    9.17208548002775    5.35607944285704
C        10.38194630911531    8.31088991600522    3.57168440781173
C        10.08122904403067    7.08190166662440    2.94525593981704
C        10.07279050041963    9.53035464745813    2.90223135643367
H        10.30913693934485   10.45884312849750    3.40062795539868
N         9.25600692092234    5.89813514062484    1.05721763957803
C         8.70342972763408    5.86092263518320   -0.13086799577255
H         8.54119074678185    4.87634857231011   -0.54473724199725
C         8.34673513312033    7.01962883465507   -0.83061659169059
H         7.88922096000467    6.93804272673244   -1.80370854960696
C         8.59336351200908    8.24631548791548   -0.26279281358231
H         8.33937218800803    9.16255091166764   -0.77615083086289
C         9.18809675970620    8.30694475425237    1.00959120489627
C         9.49277738801389    7.07993585082823    1.63797724725175
C         9.49343262710781    9.52845785107823    1.67705289723086
H         9.25422093341996   10.45539172629834    1.17713166631774
O        10.03972384969940    2.98676181814237    0.74523021002835
O        11.71026119609555    3.97852279332442    1.71477248705309
O        16.37707828260069    2.71648259765763    1.14111282074828
N        14.12604239126163    3.07631360927480    1.28840160579561
H        13.39080810279476    3.59887642430013    1.77162053550595
C        11.27620631893422    3.12367207568189    0.88466592367078
C        12.20563436546640    2.30758446980306    0.07070325262042
C        13.60144243843347    2.29469771998491    0.27511850507164
C        14.39403393311746    1.48246515140699   -0.53783924034276
H        15.45949550776817    1.47331450152450   -0.37855359798956
C        13.82297912581074    0.70594089526504   -1.52535208913736
H        14.45574384321280    0.08589633958911   -2.14327833268692
C        12.44973148069609    0.71279493470587   -1.72609657348153
H        12.00769441252279    0.09972156987555   -2.49679985506651
C        11.65373597670608    1.50750532582801   -0.92835600868703
H        10.58196326979342    1.52877902977884   -1.05416050453700
C        15.41970790162745    3.24012667803853    1.68042408943346
C        15.58443689471123    4.14668273378969    2.86417530912305
C        14.38020720331627    4.68471176113878    3.57697315120069
H        14.69518893644460    5.26731950786484    4.44045405129995
H        13.73654140093128    3.87640470437106    3.92159375791484
H        13.78988500061143    5.32967257772183    2.92600849557589
C        16.82554989975327    4.43072343452520    3.24611754563835
H        17.66357975982158    4.01969835843807    2.70928192348883
H        17.04130052757611    5.06598162069026    4.08860444485187

