67
CSD_code = WISQEX | q = 0 | S = 0 | Stoichiometry = C32H24Cl2N4O4Ru | MND = 6
Ru        2.12244294077673    0.79424646770958    3.51135397162180
C         2.23008518052835   -0.46462983033983    2.15014573281589
C         2.10885121854669    2.30795983672316    2.44810511092394
Cl       -0.24932198097724    0.83941672841349    3.25930175407291
Cl        2.03747740037823   -1.12573190718385    4.90078936973821
O         2.22320183715079   -1.32771374328135    1.40699138359549
O         1.98035161938466    3.23692804578358    1.79758937661191
C         0.96625109702833    1.50737247797652    6.12457694693626
H         0.26260276606694    0.74883659186402    5.80055521917314
C         0.89624785747721    2.02115525304488    7.42806733599809
H         0.13317737233389    1.65298180229894    8.09467397705628
C         1.81370617223690    2.95144602871870    7.83953710746797
H         1.81919046355801    3.33971002864566    8.84777895821263
C         3.79278544985028    4.33834806310950    7.20159294711858
H         3.85199744236903    4.76437968884085    8.19325068484840
C         4.67924609978432    4.68796266309541    6.22357188839456
H         5.46414998031760    5.40287642276406    6.41343574539082
C         6.77453840004250    4.78369823448616    4.04355127433587
H         7.20062137759353    4.63745249117539    5.02524830373372
C         7.58897954461271    5.16819622358911    3.00370415890202
H         8.64241144996331    5.34344406476730    3.15544379701523
C         7.06516831205246    5.35604046528993    1.72118139587991
C         5.71152476778144    5.11620022819782    1.50073605745120
H         5.27293862855270    5.24181658673157    0.52370309922547
C         4.90574093315521    4.70666472662884    2.54470410688854
H         3.85865020436002    4.52378255948116    2.37159609809411
C         5.41487148093208    4.55056862761402    3.83030120682797
C         4.52655604841693    4.14752272688791    4.92251370890219
C         2.73986739435460    2.87213069516658    5.59910612019161
C         2.77517045392746    3.40270497924828    6.91621301581728
C         7.46887606702914    6.08667530574200   -0.50757369322248
H         7.04147940393149    5.21612617256557   -1.01355558722407
H         8.33514077342768    6.43849271500586   -1.06542568122328
H         6.71777319365547    6.88069841713987   -0.46350730094656
C         4.69554093911848    0.51306938896019    5.03740452887622
H         4.01319975792292    0.12488063850275    5.78652685987187
C         6.05297126463245    0.66317392310014    5.34314545276041
H         6.39725246386923    0.41893866775190    6.33564628402187
C         6.91662566316434    1.11472353586307    4.37829384695647
H         7.96975177511877    1.25101561538845    4.57537059721591
C         7.18117825779164    1.82323917050011    2.00184573524914
H         8.24602468136486    1.95372921068443    2.13113356885319
C         6.58024834214177    2.05807736469104    0.80112106918700
H         7.17245802464569    2.35893600970103   -0.04737300370247
C         5.03081424072055    2.85455527189831   -1.63658820861753
H         6.03704207981072    3.23824038355800   -1.56531291038130
C         4.31580508500645    3.10210640924295   -2.78406174535190
H         4.74630796092225    3.66219839223247   -3.59940128781858
C         3.00485920628890    2.63333736684492   -2.92416985038114
C         2.43561378552325    1.90744766117974   -1.87843749725168
H         1.43048424639622    1.52473162804954   -1.94933128665869
C         3.15841311090993    1.67056269846883   -0.72929962507130
H         2.71428085151564    1.10841495910222    0.07730632957078
C         4.46649813898181    2.13694696198243   -0.57668590687009
C         5.17673415035532    1.87971408893041    0.67160489502772
C         5.01370352400915    1.21815733303129    2.87201224518205
C         6.40544563639957    1.39156384577185    3.09981953801394
C         1.06429039199581    2.49974425495805   -4.29091013618687
H         0.99193589650419    1.40847607079710   -4.27111826570849
H         0.78380739340391    2.86211593013038   -5.27843494462144
H         0.38900197280303    2.92418856767174   -3.54256380776860
N         1.86199002846484    1.90327749669376    5.24403167811293
N         3.57802388552954    3.28142542205122    4.63792620830935
N         4.18280569981682    0.79278971545455    3.85659833031667
N         4.44839120884034    1.46587673812774    1.69153027862336
O         7.94981366914960    5.76090805287261    0.77593709737437
O         2.39203531628180    2.93167738788836   -4.09092365777884

