71
CSD_code = WISRUO | q = 0 | S = 0 | Stoichiometry = C24H40Cl2FeN4 | MND = 4
C         6.27309748180874   17.12843421634938    5.22247362753646
C         5.57111398901927   18.14759995917987    5.93991009502608
C         5.03536796531311   19.05844813631822    6.51994613306392
C         4.34219299458368   20.10340057869861    7.19446643894586
H         4.99162798225807   20.83893866871333    7.65522157886410
C         3.04148806926348   19.78620299759943    7.89016769243709
H         2.68924558525587   18.76643220456258    7.85170274414572
H         2.83866102387344   20.28569639997504    8.82527959480417
C         3.02854330466716   20.58552291991647    6.63011079158607
H         2.81603289451332   21.64224949867907    6.68640089649515
H         2.66778126759798   20.11186521217213    5.72951924548592
C         8.34155500211811   17.96165321440868    5.99095116251043
H         7.75585102572361   18.31479766561436    6.85547190797186
C         8.70393710730646   19.17248706765233    5.12635706177287
H         7.79937940582944   19.66941929602377    4.78124589968457
H         9.27804826672613   18.84882545956071    4.26216625764573
H         9.29695415340825   19.88136271684739    5.69865649231900
C         9.60059886603930   17.26504260255326    6.50112076018116
H         9.34028122642519   16.47100074775711    7.19606600737118
H        10.24574924698854   17.97817185540712    7.00807541447984
H        10.14255539247786   16.82453459713623    5.66351795656326
C         4.09196625738079   16.36064936741288    4.31246719363120
H         3.63835376681055   16.87113685287754    5.17111328055417
C         3.84401630369751   17.18902067693096    3.04827037485150
H         4.27117051702522   18.18327803724258    3.16123500508465
H         2.77806833763988   17.28628499287943    2.85973586452175
H         4.30871757822140   16.70568686934207    2.19208769517974
C         3.50317076641753   14.95990367022597    4.17675976884056
H         3.67433306196915   14.38939810834112    5.08598993943716
H         3.97700918004825   14.43808085408662    3.34872920601090
H         2.43371281412607   15.01377714529627    3.99248726464570
Cl        7.38392715264013   14.20151701167033    2.89808287664538
N         7.56086013303024   17.01915421230995    5.20783336805675
N         5.50709855288650   16.23273378442425    4.56823469443542
H         6.00787705357160   15.57641677024242    3.97566435338305
Fe        8.78299837828393   15.45442326723625    3.69175763430781
C        11.29611960584435   13.78774001948521    5.22339901343311
C        11.99910881643239   12.76811940660854    5.93918383356708
C        12.53833483000504   11.85850085385780    6.51781141440450
C        13.23155272152717   10.81463043089851    7.19390969887631
H        12.58213494963032   10.07920796900434    7.65486981634894
C        14.53182587506549   11.13308804511505    7.88996536774536
H        14.88354879624682   12.15298379309301    7.85059383013678
H        14.73457455485960   10.63458379638726    8.82562573339751
C        14.54560135594967   10.33257639590781    6.63067493188203
H        14.75842109820527    9.27598159108625    6.68812937798808
H        14.90654675249255   10.80541643697050    5.72972221359373
C         9.22951360171028   12.95025775559945    5.99184984847784
H         9.81669125710580   12.59708042801716    6.85532976633688
C         8.86776367827308   11.73966865712071    5.12672405373987
H         9.77259987249513   11.24349820841553    4.78132743197887
H         8.29348427159468   12.06341002255111    4.26271006982681
H         8.27516364131835   11.03005955155818    5.69854172793326
C         7.97032334389486   13.64476898032703    6.50458240239128
H         8.23064449318453   14.43799219999512    7.20047636154351
H         7.32673240483122   12.93011896375572    7.01137512357843
H         7.42666434135121   14.08592771729409    5.66842544015278
C        13.47622476741991   14.56063720315626    4.31489969031965
H        13.93074241584927   14.05165460901809    5.17396110815025
C        13.72687010229268   13.73236676694927    3.05119996791770
H        13.30344790133278   12.73659092907608    3.16481252389571
H        14.79313955996337   13.63904542186311    2.86235365542570
H        13.26007822429775   14.21358039273410    2.19496617732416
C        14.06140490025758   15.96287983282137    4.17908554779271
H        13.88872777651957   16.53320698970175    5.08815314130203
H        13.58628919655104   16.48322355301750    3.35086747970562
H        15.13102691553074   15.91171578325875    3.99488918913415
Cl       10.17946899641594   16.70784034203122    2.89387725539146
N        10.00812591310567   13.89480164754421    5.20898231715461
N        12.06065742590308   14.68535278663615    4.57015106095287
H        11.55880353764447   15.34084488330089    3.97749714962671

