77
CSD_code = WISVOM | q = 0 | S = 0 | Stoichiometry = C33H31ClN6O5Ru | MND = 9
C        -0.53193704541237    0.13315112989557   25.01854008505410
H        -1.30352036685686    0.70302763194695   25.53370218493404
H        -0.04853952084936   -0.51609936574249   25.74538676413711
H        -0.99476383327911   -0.46874217422922   24.24190417383705
C         0.46303767765846    1.03809351452822   24.38937589488983
C         1.46451013215768    1.84741407933451   25.02120665372381
C         2.17068016001090    2.44637327337738   23.92922612124198
C         1.85885754676597    2.27640479488922   21.45894479500299
C         3.01631679032869    2.95845225067613   21.09940252104856
H         3.70808083871269    3.28305902149827   21.85966284562131
C         0.97553651251332    1.83905426582742   20.47512848725538
H         0.09136121732051    1.30117049614363   20.77581715154593
C         3.27781752438264    3.20251881746528   19.76356163169902
H         4.17959328580288    3.72898533555336   19.48692337263931
C         1.24954611117643    2.08988859991148   19.14500295295542
H         0.56213350202314    1.74845374465488   18.38544445937562
C         2.39852001138761    2.77468436626437   18.78349332210714
H         2.60962149372203    2.97058908343642   17.74292697808567
C         1.74121785727141    2.06896492810576   26.37534885189673
C         0.76296975225323    1.64956765901399   27.40882981176231
C        -0.45934862382723    2.30300350478402   27.51425526888917
H        -0.70066872352977    3.09583945788537   26.82135989293221
C         1.08784886804858    0.63744917584955   28.30600148294482
H         2.03664031155515    0.12840074466982   28.21439363920569
C        -1.35053085341460    1.94232573871447   28.50905674720861
H        -2.29668974517779    2.45516904837992   28.59213877903385
C         0.18763334950107    0.27532436626047   29.29142316401623
H         0.43936219729643   -0.51595035258475   29.98124633597747
C        -1.02912440469792    0.92904483782228   29.39651974044502
H        -1.72623934773108    0.64952507116533   30.17158068133083
C         3.82160939868417    2.49474034345682   28.97531932451492
C         3.84421559078389    2.89766940640029   30.34131213738427
C         4.82914699656489    2.40872574883450   31.19684940524538
H         4.83839607172789    2.72286114640060   32.23127973513612
C         5.78753120341545    1.53649938604231   30.72660759010455
C         5.76763838034219    1.11171496543705   29.38717866036709
H         6.51871477104747    0.41417347998217   29.05011212870354
C         4.80668463572039    1.57630842507939   28.53634799866049
H         4.78759832174607    1.24904385486009   27.50372252700134
C         4.32896840393594    5.82263316613952   25.73749807480540
C         5.11083511998080    5.37905176630349   24.63783382779447
H         4.90864258623624    5.76330539928531   23.64563308407651
C         6.18821832185356    4.50031994463421   24.81097231385591
H         6.80649973970887    4.22728606253988   23.96292891268731
C         6.52018905999060    4.00307890993596   26.10132323277888
C         5.76861385297228    4.45661513437871   27.20236549687927
H         6.06916765509493    4.18173814141816   28.20743649304438
C         4.67481348142908    5.33390853202702   27.01136901838974
H         4.14738771694443    5.71194449913719   27.88210689323494
C         3.16309907813679    6.77862959238474   25.60462443244725
H         3.27096307230854    7.54545231453822   26.38309798498389
C         1.85932253265220    6.01013213696863   25.86049700698464
H         1.79605705184205    5.15998728316962   25.17957329577628
H         1.00130469353512    6.65592260782373   25.69020355517728
H         1.81345795136747    5.64675559983620   26.88530407400980
C         3.09657411717496    7.47505405602482   24.24783263817542
H         4.03119800177496    7.98406848227360   24.02111943453971
H         2.30227977142975    8.21757639225400   24.26075019270391
H         2.87474131128482    6.75983547652395   23.45865260566237
C         7.66851014023591    3.06100601849695   26.27521739320560
H         7.94431717954447    2.96391983295141   27.32253600098344
H         8.53183886137541    3.39674783609530   25.70338766283573
H         7.37932307757072    2.07575794338787   25.90137543172196
N         1.55628040080813    2.00084893108691   22.79727748897779
N         0.53965109197582    1.14517620751450   23.09555506031461
N         2.84669916388719    2.66809137060375   26.77450846942576
N         2.91486235811447    2.98668184573009   28.11637033679763
N         6.81161385940268    1.05849463847841   31.61094253328783
N         2.89109503532757    3.79269791546527   30.89479949479834
O         3.09951778779741    3.30520847727943   23.94334191339674
O         2.01970540344273    4.25607478160843   30.15712514087967
O         2.97450875899607    4.07427764388157   32.07023318799195
O         6.77078901053356    1.41850705554050   32.76875323943202
O         7.66039444057944    0.32879914087725   31.14097210588560
Cl        4.88646371104936    1.29475729124604   25.12247563878299
Ru        4.31454469123769    3.51275579997014   25.63182043188799
H         2.15959346333430    3.54872197020865   28.52595160346642

