90
CSD_code = WISXEB | q = 0 | S = 0 | Stoichiometry = C34H52ClIrP2 | MND = 4
Ir        1.12527998163568    2.77274132097714    3.78047867908262
P         0.31249142922960    2.90121679282549    5.98590703076599
P         1.84648667433670    2.65283945688376    1.54191654365131
Cl       -0.03332201538245    0.82705810523370    3.47410754622737
C         2.01294211522791    4.38829797834763    4.00111236504325
C         2.60406017818056    5.51585977404781    4.10794406640670
C         3.18365434718482    6.64430368481172    4.19629396682027
C         3.80275206103809    7.81887282956383    4.26730230406880
C        -1.08634283796385    4.13159493006399    6.13631927178546
H        -1.54380189958011    4.04089952155086    7.12669707824335
C        -0.45441827975474    1.33974804638368    6.67218644983200
H        -1.03047332335558    0.96701420124902    5.81581978188317
C         1.58199245763789    3.56589364405880    7.19014058369484
H         1.73404696412045    4.58330566762944    6.80912832735148
C        -0.60809627329115    5.56690979121304    5.94011977463869
H         0.00622942553516    5.64021879262325    5.04318641093652
H        -0.02988292766129    5.91626217530433    6.79183847561254
H        -1.46514459525334    6.22874718757915    5.82364923312305
C        -2.11036098122660    3.77639508426053    5.06021571683662
H        -2.96155301854997    4.45514910900484    5.09444065914786
H        -2.47756008588657    2.75885194572766    5.17697164351535
H        -1.64230310973984    3.85878799714205    4.07749252838708
C         0.64051609442763    0.31342568956221    6.95269553773458
H         1.16807800081321    0.54073738752920    7.87638960068361
H         1.35501878646101    0.29147046505800    6.13085552020217
H         0.20606902973768   -0.68087074124087    7.04843019967553
C        -1.40845289065975    1.46402089262242    7.85664130888615
H        -1.74885609848270    0.46588240454612    8.13212255966743
H        -2.28876340536345    2.05147922856683    7.60760065933857
H        -0.92865963583537    1.90303125580335    8.72625950087801
C         2.91691089147639    2.84083987087904    7.03172115712345
H         3.71855391125809    3.43888665439822    7.46142005076702
H         3.13142180919806    2.69134009732102    5.97235586976867
H         2.91293155218289    1.87457015623396    7.52733139292317
C         1.16595071802897    3.64768475565852    8.65363033541273
H         1.12447222596792    2.65977556733891    9.10581168932600
H         0.19824919750892    4.13061985532056    8.76863052698829
H         1.90100537433127    4.23183621032507    9.20658236304393
C         0.71682051427434    3.62661078964119    0.42087358997439
H         1.05622394636469    3.52843297902075   -0.61607016975066
C         1.82813308900614    0.95018174138546    0.77239050662319
H         0.85105420952171    0.56749487915707    1.09329379050980
C         3.51205132900448    3.46286245749052    1.24826434572419
H         3.29546364043800    4.50339572273325    1.52034526810442
C         0.71726768394414    5.10229986469412    0.81069874476012
H        -0.07722103293300    5.62713285841256    0.28245676776117
H         1.65911830707878    5.58489022387370    0.56311876713485
H         0.54787805872450    5.20584239151429    1.88267534441835
C        -0.69358379848189    3.05710160626090    0.55464236203484
H        -1.00010509366534    3.07507739228932    1.60003870759846
H        -0.74864611052007    2.02872235873766    0.20539582768327
H        -1.40251404755227    3.65107249435047   -0.02094146263447
C         1.89927227507345    0.84127838489626   -0.74738133855031
H         2.85670672562326    1.17660752662911   -1.13430571299751
H         1.10911452335284    1.40653572348539   -1.23480070946939
H         1.77651127180796   -0.20523592863616   -1.02680547160388
C         2.89172654851997    0.07778917097404    1.43498855379025
H         2.68592839874473   -0.97488449463020    1.24537810360935
H         2.89030029486594    0.23472177015855    2.51370362312081
H         3.88308011569792    0.30205677378621    1.04743180709285
C         4.06188719010417    3.43596834171957   -0.17277526607286
H         4.88938595566204    4.14042965148121   -0.25324950831948
H         3.30878375691595    3.71992970476648   -0.90367963042279
H         4.44594188608567    2.45049769848172   -0.42475840362144
C         4.55201488862843    2.95473171517962    2.24531259918645
H         4.95276708679401    1.98935189483622    1.94977821849293
H         4.10372092753129    2.86108584109553    3.23566321453759
H         5.38122457175083    3.65694050920453    2.31310741236192
C         5.22947786184264    7.88596076136847    3.94044183921896
C         5.77232551648245    7.00038799151706    3.00637959186140
H         5.12049617426025    6.28622531278839    2.52278014224982
C         7.11631123039291    7.04116664603594    2.69478588509098
H         7.52018207310171    6.35363764468562    1.96479446903759
C         7.94738561302273    7.96430283639583    3.30931618447485
H         8.99778492499506    8.00105773718742    3.06046745016386
C         7.42293407147383    8.83585106007696    4.24992019116415
H         8.06843683643477    9.54880515385026    4.74310811504310
C         6.07904067819023    8.79701826237791    4.56856666700097
H         5.68512811971742    9.46456967181211    5.32156495354562
C         3.04816113139711    9.00929557535695    4.66026677510687
C         3.40277925331690   10.27985876195362    4.20416576110653
H         4.24689042309195   10.39403982974488    3.53913935186495
C         2.66872399371252   11.38893529018674    4.57807692422244
H         2.95763470048376   12.36638585608253    4.21817348286508
C         1.56366632471523   11.25495665093316    5.40293560914735
H         0.99494095654407   12.12547418378543    5.69543944461845
C         1.18916429637088    9.99545765356856    5.84361433918351
H         0.32330907424485    9.88106581297753    6.48044727535253
C         1.92109116276608    8.88428004925658    5.47702506180629
H         1.63160662352132    7.90264742862736    5.82505389532576

