36
CSD_code = WISYOP | q = 0 | S = 0 | Stoichiometry = C15H12CuN3O4S | MND = 5
Cu        3.04640695051873    4.94927538954802   10.23293926252903
S         2.65606759313155    1.33519799905149   12.57790195968636
O         2.05796926319694    6.13808237073433    9.14115455193902
O         4.15010664094099    5.93014414328369   11.63494332558735
N         4.39404513562800    5.03309052326791    8.96618729863823
N         1.68768140507030    4.96552899283058   11.46714216429539
O         3.88958179889002    6.47245028131754   13.77627297681477
O         2.10968257664993    6.91715622450460    7.06760213781814
C         3.50021694963469    6.02293725440357   12.72225469240249
C         3.98775816922167    5.70739705577307    7.89168679275805
C         2.06158938644031    5.48322407126037   12.62776511510302
N         3.23538997962056    3.06992584618924   10.52363323998050
C         2.60472849425238    6.31536490101125    7.99141171206817
C         2.97977568139893    2.37476170549710   11.45128194000080
C         0.46004715335824    4.48925003534997   11.26828440635773
C         5.64159448035768    4.57471371414471    9.05634666408598
C         4.80373953620381    5.91260173112663    6.79401554998552
H         4.40796480562319    6.46918532386874    5.95932928496361
C         1.19616093803950    5.54475391256588   13.70667947498784
H         1.56311368831547    5.97368498101917   14.62601953543522
C        -0.45418633529913    4.52674517013151   12.31838646000469
H        -1.44769464459329    4.13872868850294   12.15800720440584
C        -0.08690406897055    5.05119738819999   13.54590354443934
H        -0.79251781880807    5.07416482297900   14.36260389243919
C         0.10506878896520    3.94168358259042    9.93312550385683
H        -0.90126514873385    3.53393266652626    9.93431955281154
H         0.17436773406364    4.73886525073993    9.19260796424282
H         0.81449477839169    3.16548094756852    9.64580440872244
C         6.50923091906884    4.74617969597580    7.97550298039600
H         7.51476302642639    4.36356155991328    8.05345976090400
C         6.09116390815302    5.40185023877908    6.83272421056848
H         6.76231725267156    5.53005776260523    5.99697821345229
C         6.09751235613498    3.91863013400346   10.30578877471375
H         7.17355899228388    3.77327998492948   10.29800226685273
H         5.81107357462760    4.53802314506925   11.15602987033221
H         5.60239605909254    2.95599250469852   10.42450330638155

