81
CSD_code = WISYUV | q = 0 | S = 0 | Stoichiometry = C30H42I2N6Ni | MND = 4
I         1.58944305471209   -1.51207613393931    4.98476008548089
Ni       -0.85016040795913   -1.85909068225267    5.44949715022111
N        -0.40486399435470   -5.76784940293175    6.46820427477284
N         0.10459976364860   -5.22118487622566    7.54208422700475
N         0.03504503171475   -3.92345618869434    7.34187203910325
C        -0.50307679546176   -3.58393384445950    6.15301817871959
C        -0.43281704158262   -7.19688945736409    6.35458321953912
H         0.38888708078498   -7.59951990122286    6.94528053641408
H        -0.32119169699940   -7.48383073478576    5.30985446206341
H        -1.37170974750610   -7.59509858781239    6.74428541178520
C        -0.80003540449599   -4.83095693396463    5.57621536188923
C        -1.43542062059635   -5.06484882022918    4.29094722012477
C        -2.39217312275845   -6.05746852323293    4.09175578775553
H        -2.68798364524176   -6.70226160133978    4.90519777694815
C         2.03186487389915   -3.19195038575914    8.55965389462204
H         2.54331365902847   -3.10659261299931    7.59889095069276
H         2.22401177619248   -4.18821898791255    8.96282472296635
C        -3.01295954038886   -6.18371549832927    2.86291523712740
H        -3.76299021204325   -6.94786037169648    2.72165026913007
C        -2.68911495082415   -5.33027367644872    1.82183426386427
H        -3.17846945613667   -5.43272459408203    0.86473755332212
C        -1.74522695960529   -4.33454401915945    2.01455572429430
H        -1.49258110947150   -3.66453991346671    1.20551544483026
C        -1.12802241308966   -4.19660563078831    3.24239782950948
H        -0.37835371935329   -3.42518610320904    3.39429731491928
C         0.53071889989180   -3.01674673958155    8.34212093562665
H        -0.01400606366918   -3.19021893762280    9.27518064283845
H         0.32421373595926   -2.00175548874022    7.98675339057720
C         2.56808990686318   -2.12221998355908    9.50490526861703
H         2.36496543063204   -1.13709228805045    9.07859934963685
H         2.04800710889128   -2.18645140619441   10.46443089640218
C         4.07015522369405   -2.26717782538100    9.72904676793529
H         4.28091468269950   -3.24924072222161   10.15924802963883
H         4.58123269817930   -2.20860144584687    8.76597412265264
C         4.61525560786571   -1.18261881422864   10.65456206694664
H         4.09895121277043   -1.23444154995539   11.61634842890351
H         4.40695665341237   -0.20310793428179   10.21833388511038
C         6.11528387221742   -1.32958699077812   10.87623190217039
H         6.48506453476743   -0.54802978985051   11.53600347445169
H         6.34145128847313   -2.29398934125650   11.32608108437656
H         6.64691967682058   -1.26103214033785    9.92991960736510
I        -3.28997000693564   -2.20653046595079    5.91424499709128
N        -1.29546940673374    2.04951712791624    4.43055739754878
N        -1.80493085880057    1.50284103921544    3.35668722222461
N        -1.73538481779989    0.20511593831861    3.55692056788153
C        -1.19729200401959   -0.13436944457221    4.74579854439785
C        -1.26740078735949    3.47854534096063    4.54418462773401
H        -2.08904091887940    3.88125552379657    3.95345478906304
H        -1.37904678050728    3.76547697383109    5.58891452384910
H        -0.32844778390029    3.87665941594095    4.15453506018379
C        -0.90031052603675    1.11264465642575    5.32256642442054
C        -0.26494693462623    1.34654451694966    6.60784439255100
C         0.69193736773205    2.33907899968846    6.80697639823670
H         0.98767200374221    2.98391293950197    5.99354968513683
C        -3.73219684947577   -0.52645588294534    2.33912285258306
H        -4.24363862820389   -0.61180362573801    3.29988447183294
H        -3.92435237519938    0.46980287046761    1.93594311194668
C         1.31288347884069    2.46523571957094    8.03575325547701
H         2.06258179568515    3.22961824831861    8.17710704441474
C         0.98890844983165    1.61190505849666    9.07691142269282
H         1.47826669085241    1.71437597714000   10.03400637359894
C         0.04473471558315    0.61635604176259    8.88430342258487
H        -0.20759600082132   -0.05387789029920    9.69321355754757
C        -0.57243759190783    0.47838327559141    7.65644399577451
H        -1.32177082166986   -0.29325771804447    7.50444324241422
C        -2.23104715915534   -0.70160267651870    2.55667099969230
H        -1.68633134026375   -0.52811392991752    1.62361026598034
H        -2.02452461938026   -1.71659542230178    2.91202044242875
C        -4.26838990550838   -1.59620187780393    1.39386774765747
H        -4.06531620066989   -2.58131845172798    1.82021842625133
H        -3.74823788057607   -1.53200913810474    0.43437868011792
C        -5.77043157987088   -1.45121339083152    1.16958865139748
H        -5.98114404730609   -0.46914968486842    0.73936577262330
H        -6.28159060705678   -1.50979194055963    2.13261592837536
C        -6.31539751163534   -2.53579445256646    0.24401467824526
H        -5.79892488119121   -2.48401179999196   -0.71768705634382
H        -6.10720177056792   -3.51529897326204    0.68031113656954
C        -7.81538584737806   -2.38879165965678    0.02208123755704
H        -8.18503957941898   -3.17036712815193   -0.63773923076608
H        -8.04146710105756   -1.42440293357538   -0.42784539816261
H        -8.34721024993012   -2.45732229631342    0.96829154684251

