41
CSD_code = WITBEJ | q = 0 | S = 0 | Stoichiometry = C15H19Cl2FeN3S | MND = 6
Fe       10.27574121697594    1.60882883659032   13.16501658787266
Cl        9.57781599407541    0.47379256818840   14.90043568430683
Cl       10.67037887023601   -0.24902685948185   12.06552011644852
S        10.07953425201297    3.44088001844295   14.39605713242588
C        10.66146696798972    4.15018497752629   11.82569071075353
H         9.61094553518763    4.37727731302897   11.62386470313368
H        11.27303720792373    4.72945923466062   11.11795192741029
C        10.97542548423713    4.55792316681160   13.25215586203559
H        10.68599680033785    5.58793751582114   13.45193573819138
H        12.03216703534597    4.42911078760059   13.48331229645137
C         8.43228496516282    4.20384761686082   14.35648889283810
H         8.49005508100152    5.18943241902745   14.80934589469751
H         7.79722341601855    3.55767671322121   14.95305942447170
H         8.04486817665411    4.26415889637560   13.34436604039484
C         8.59820503207194    2.08773478849567   11.09454537027704
C         7.44690701345615    2.25557687174002   10.34811648127370
H         7.51726297569632    2.57333525998680    9.31891824370723
C         6.21515906304458    1.99144669428963   10.93213158118600
H         5.30305894608233    2.10818748693374   10.36771449204996
C         6.19391391415875    1.56047995837256   12.24973877697126
H         5.26596257179522    1.31940780062762   12.74244329403713
C         7.38770373287880    1.43362857858579   12.93404224732945
H         7.43078621508941    1.08338312177417   13.95463381083137
C         9.97846707052829    2.26162982424121   10.53376478963047
H        10.31168529176838    1.26326315746918   10.23475332809169
H         9.99576873246829    2.93574088619166    9.66833733216512
C        12.90807216081174    2.07754286571369   12.75686281402911
C        14.26652359535070    2.22312620821110   12.97141498561113
H        14.89683712377533    2.60753342024671   12.18379845592998
C        14.80087891354652    1.85434234864741   14.19830632691442
H        15.85858749931285    1.95350835624914   14.38785562214302
C        13.94395529582615    1.34708967487784   15.16263035509241
H        14.31218300983215    1.03069777875976   16.12486909354452
C        12.59609593230452    1.24503522694186   14.87501348086039
H        11.88351167399239    0.85221985924054   15.58470663568700
C        12.25892441009606    2.35438698052394   11.43141044982216
H        12.81269294709234    3.10910493193509   10.85845999773585
H        12.28094948983445    1.40316778243200   10.89131810646009
N        10.85497727743513    2.71393184091506   11.61603290434206
N         8.56963826373083    1.70361304855437   12.38164367047731
N        12.08285084486085    1.60830204336942   13.70263634236770

