73
CSD_code = WITKUF | q = 0 | S = 0 | Stoichiometry = C24H36N2O4P2S4Zn | MND = 4
Zn       -0.92449901849432   -0.08563087911644    4.03300729033964
S        -0.40097600249813    0.13780238327072    1.49615425993347
S         0.99109148636332   -1.67149969444688    4.03753710025954
P         1.19380336675785   -0.81739475942026    2.24284202744855
O         1.74700188218840   -1.85879184388809    1.16624492910018
O         2.44036092907928    0.16864632452743    2.35631171280571
C         0.88914750949611   -2.91771712780801    0.70249478756501
H        -0.14498621600465   -2.67961573941891    0.98635473051286
C         1.00184190089850   -2.95947847510827   -0.81357438315606
H         0.68663430695780   -2.00725208178564   -1.23336572211202
H         0.36657948933212   -3.74751645404613   -1.20744960030682
H         2.03246486464956   -3.14960736399291   -1.10401418570091
C         1.31694574675946   -4.21843265771258    1.36204526124953
H         1.25193990501065   -4.12133104534214    2.44332620766877
H         2.34461062240184   -4.45089519655569    1.09254224206332
H         0.66733294974777   -5.02678631630220    1.03831722644845
C         2.84114006337658    0.94765546960870    1.21608122887574
H         2.07161163397818    0.84721299668731    0.43929898106216
C         4.16797896961972    0.40940909100504    0.70689978023880
H         4.05875786247783   -0.63968977976009    0.44533500956634
H         4.92442619400580    0.49856505257760    1.48285889765923
H         4.48366285384671    0.96724486373464   -0.17064145590160
C         2.92821885026900    2.40255577130988    1.65395147413948
H         1.95141514410714    2.74899614678630    1.98500053532594
H         3.25675778248078    3.01829125425485    0.82123496426011
H         3.63378249454461    2.50099527273902    2.47562073401232
N         0.35549306421419    1.61974014307419    4.47663010873689
C         1.57537847988473    1.59717366899790    4.96175121242538
H         2.00850285199720    0.62056840449062    5.12506690637707
C         2.29278884025893    2.76011427114919    5.25588767083752
H         3.29228875328246    2.68281749213899    5.65332145130455
C         1.70754714961417    3.98109025029326    5.02817477228111
H         2.23313664784050    4.90321440510204    5.23156709414432
C         0.39540920984246    4.02889392198295    4.52803538465274
C        -0.25078525820847    2.79862880636259    4.27611493484324
C        -0.29233759456311    5.24947478990946    4.27257104619287
H         0.22571583368239    6.17629709369877    4.47114370098959
S        -1.44705084621361    0.13705711858326    6.57031506131781
P        -3.04220325985600   -0.81759916044782    5.82387660483757
S        -2.83990690547469   -1.67158760988502    4.02904455008764
O        -3.59558358875459   -1.85888390987024    6.90048365597572
C        -2.73831208890834   -2.91872406990797    7.36323775095826
H        -1.70422013914354   -2.68171566181692    7.07825006740356
C        -2.84933397102141   -2.96054352067677    8.87943954151138
H        -2.53298215266775   -2.00857662224114    9.29899051743865
H        -2.21415958206077   -3.74907094762870    9.27248519721893
H        -3.87976401202088   -3.15000901162654    9.17104395872995
C        -3.16828349648136   -4.21889693691380    6.70400522821161
H        -3.10445437175155   -4.12170014679582    5.62265611918104
H        -4.19589243373307   -4.45028319395815    6.97469447676163
H        -2.51917333734416   -5.02800593079118    7.02685826087410
O        -4.28840296960425    0.16894408788383    5.71076435205608
C        -4.68834890935530    0.94821784021681    6.85110712968732
H        -3.91855406262441    0.84745539342146    7.62758731389371
C        -6.01521404172712    0.41058238504104    7.36083791581812
H        -5.90636211814080   -0.63857928455249    7.62229868343741
H        -6.77196302760466    0.50013310041922    6.58522186865169
H        -6.33023762689766    0.96851766995626    8.23854872013410
C        -4.77489296829119    2.40313637029517    6.41320203483071
H        -3.79806042917433    2.74906715072959    6.08170865492981
H        -5.10274151722432    3.01907849071342    7.24603415082853
H        -5.48076452875540    2.50191415730993    5.59184026615493
C        -1.59954165029188    2.79836378936618    3.78952586891171
N        -2.20543633990937    1.61923905937425    3.58922001945450
C        -3.42533598912699    1.59621671967848    3.10414504401410
H        -3.85819420398601    0.61945378797610    2.94107025390521
C        -4.14313183107377    2.75888241433161    2.80983588221251
H        -5.14263160027271    2.68120727130984    2.41246872524632
C        -3.55826619493830    3.98008399846691    3.03730081350281
H        -4.08415138123108    4.90200880936169    2.83375663727837
C        -2.24613500588431    4.02838464583550    3.53740755348019
C        -1.55878339047356    5.24923016498426    3.79266909383284
H        -2.07711357664347    6.17585312326559    3.59388971062694

