49
CSD_code = WITZEE | q = 0 | S = 0 | Stoichiometry = C10H31BMoNO2P3 | MND = 6
Mo        7.45876668443180    5.42733993867679   23.75649528946415
N         7.09012285429583    4.24970850565669   24.99143317867114
O         6.83712182586519    3.45239235768239   25.82763161616219
O        10.27413078161877    5.71589736811780   24.99446558286738
C         9.24624647176198    5.65754055025346   24.48452627042299
P         6.83553544344406    7.36119369386919   25.05908913521436
P         5.21328021671950    5.07043812882519   22.93355744989823
P         8.44094809267072    3.86325906886017   22.20538181892157
C         8.26546257312636    8.41966704888019   25.46613259189796
H         8.76121775622031    8.67962222287641   24.53019954096513
H         8.96048348744760    7.86008250444380   26.09245746883681
H         7.95130030688067    9.32612169150754   25.98660835665158
C         6.13893152777207    7.08394434328013   26.73022351636084
H         5.16800848737073    6.59623732726471   26.65519187660180
H         6.03750661080475    8.02704199950215   27.26868155569545
H         6.81719303281317    6.42195504951002   27.26989571061114
C         5.72353886756742    8.65635046897684   24.38991650130357
H         6.17161094333312    9.00745313436837   23.45996922883937
H         5.63684291736842    9.48536277805636   25.09370497867651
H         4.73373215908382    8.25792060208400   24.17384911636126
C         3.86109765960025    5.31735616713968   24.15039926979543
H         4.06708618237530    4.67943713740479   25.01131639417988
H         2.89693646034750    5.04452502088792   23.71851070133349
H         3.82888393773311    6.35310010630283   24.48287058955562
C         4.77265767096906    3.34599981689963   22.48297388420225
H         5.37986069176421    3.00070184554259   21.64837064126949
H         3.71676623392461    3.27363691286313   22.21749783190950
H         4.97347880400833    2.71332797569410   23.34896621097080
C         4.57123126849491    5.99030655327576   21.49039256573428
H         5.21560789017081    5.78712584557573   20.63541377902217
H         4.62751397445465    7.05709920745780   21.70508932643388
H         3.54289578064543    5.70725641857200   21.26085511639364
C         8.39146480270523    2.07909598034358   22.61789158399701
H         7.36403467768794    1.71847724555794   22.60440176118531
H         8.78727324529613    1.95777886199631   23.62692154168414
H         8.99355433916515    1.50341536261089   21.91382883232383
C         7.97237390561726    3.86525699488949   20.43361583211673
H         8.15467186927479    4.87406030895142   20.06189844759638
H         6.91784158588792    3.62904236303917   20.30161166667139
H         8.57928306532087    3.15031331426177   19.87634583784649
C        10.23892524345972    4.10622881871142   22.00701144742197
H        10.40218829974115    5.14596518939173   21.72113012838929
H        10.64593067295032    3.44131011315660   21.24318614188416
H        10.73520779662949    3.91752163698436   22.95919847268444
B         8.41571028223219    7.56290368829275   21.68653916562798
H         7.77682316128617    8.54787131875559   21.86293924526789
H         7.75483896141608    6.56357088090857   22.53564338093305
H         8.30893762535618    7.11395284647153   20.59291525686528
H         9.53294287080413    7.62803328542228   22.08345416230162

