71
CSD_code = WIVCEJ | q = 0 | S = 0 | Stoichiometry = C32H36Si2Zr | MND = 12
Zr        4.51966344594160    4.72732684617655   -3.02074225750352
Si        2.24693685703148    2.17509947166613   -1.43670913282074
C         3.42699591590949    6.09079374763331   -1.69129657863482
C         2.82290919549993    6.85976255804636   -0.96421477496564
C         2.13817477403992    7.75652164170432   -0.09942352671153
C         0.81521682825574    8.12380040841239   -0.35091533053884
H         0.30737544256519    7.71925624372134   -1.21583281744988
C         0.16282801874332    8.99674592978973    0.49810521847614
H        -0.86174549669602    9.27670568587566    0.29686282002997
C         0.81646105687806    9.51390597296139    1.60511738538488
H         0.30321855033528   10.19683346156817    2.26635784472862
C         2.12999826230269    9.15276841936273    1.86167040622015
H         2.64085344861291    9.55504617350666    2.72506247611206
C         2.79044597591445    8.28062303310080    1.01908179899361
H         3.81453584715239    7.99512162173633    1.21389457795087
C         3.19906123281492    0.52587100081552   -1.28178581500485
H         2.92984371867328   -0.16311834867281   -2.07609107969627
H         2.97712644737883    0.03664414742879   -0.33922436595636
H         4.27193327441274    0.68649791330318   -1.32597650449426
C         0.36623942407918    1.82188800315299   -1.42612712174128
H         0.07276327268243    1.20251311913833   -2.26757307857023
H        -0.20973585368034    2.74007251794982   -1.47806871512976
H         0.07440343171201    1.30353359400881   -0.51875906801414
C         2.66658385107368    3.34665929426609    0.01887202625610
H         2.13288692361158    4.28992389273551   -0.07762203426715
H         3.73362104549637    3.57413010206448    0.04409590745762
H         2.39057180383873    2.91239346619716    0.97527606854850
C         2.71715666150325    3.01861148420800   -3.04894759155008
C         2.10746959890880    4.18450186303958   -3.58137147551985
H         1.25785420508390    4.69699595839922   -3.14566568900330
C         2.67982847351109    4.46336525102638   -4.83516922953406
H         2.33646100341774    5.21931132452364   -5.53232521295987
C         3.64068583257415    3.46456469350818   -5.10434581199938
H         4.15546806635854    3.32247306089564   -6.04730464225524
C         3.67824810859920    2.58757753248353   -4.00670698799813
H         4.23547913635577    1.65853966625765   -3.95504664228741
C         5.61315447239055    3.36350489373689   -1.69217858825149
C         6.21621102644212    2.59365220791499   -0.96512511766321
C         6.90021280227893    1.69721140760813   -0.09940548044834
C         8.22296147250428    1.32877768157342   -0.35033929111309
H         8.73135068682743    1.73253443378220   -1.21529669893910
C         8.87441587274794    0.45568230109146    0.49924922038877
H         9.89883140669887    0.17493048210678    0.29847606851990
C         8.22001260636897   -0.06056077241700    1.60623799509964
H         8.73255363530902   -0.74351877786156    2.26796827722978
C         6.90663648412373    0.30163566345021    1.86217527106578
H         6.39516196522627   -0.10000397714822    2.72550161885274
C         6.24713105297286    1.17396162050271    1.01903070430355
H         5.22313217829015    1.46009482845786    1.21326910544083
C         6.32223318194466    6.43586315174674   -3.04956791519380
Si        6.79352753584721    7.27891704402345   -1.43740622525218
C         5.84181552805631    8.92829937880430   -1.28166101529914
H         6.11049744820530    9.61722174378747   -2.07620485481301
H         6.06463862515572    9.41749131244998   -0.33928920172240
H         4.76887366424245    8.76784092687283   -1.32495741203541
C         8.67434709723311    7.63149470717497   -1.42781653935370
H         8.96743510340696    8.25118761947316   -2.26916656287883
H         9.25002697833709    6.71316286646654   -1.48057458915852
H         8.96690972941105    8.14934352101039   -0.52039286653557
C         6.37405389027795    6.10719711241895    0.01809717365792
H         6.90718919097507    5.16366109754093   -0.07886145613489
H         5.30690907244005    5.88027834374503    0.04378035809741
H         6.65071378377895    6.54105135669122    0.97449254316122
C         6.93146870114542    5.27008243945177   -3.58276588678921
C         6.35838443413212    4.99180118267085   -4.83637110510168
H         7.78130267375098    4.75734450205078   -3.14775996767860
H         6.70130443209937    4.23613492299672   -5.53405306937646
C         5.39732258089722    5.99067051692043   -5.10452327818971
C         5.36060631457699    6.86732379213289   -4.00659839009344
H         4.88190491510436    6.13310626914785   -6.04708036856636
H         4.80345167561857    7.79636344859270   -3.95423350043235

