71
CSD_code = WIVCAF | q = 0 | S = 0 | Stoichiometry = C34H36Zr | MND = 12
Zr        5.61478563077073    9.06946210076296    8.68330036294688
C         7.14000723206698   10.17547315363701    7.56225389753507
C         7.98097835636299   10.81024510995714    6.95204158407586
C         5.09988510816009    7.74809118256720    7.00987592626451
C         4.91340853702299    7.05521845942138    6.02464942357837
C         8.97945828636328   11.54044497416524    6.25305777753392
C         9.84909031937253   10.88270997293456    5.38060742224529
H         9.74744431094671    9.81552505503016    5.23996708262629
C        10.82364126649407   11.59132301728206    4.70586532673379
H        11.49355372839456   11.07535328055003    4.03233612107590
C        10.94646774489508   12.95965433347511    4.88893687581619
H        11.70990430308703   13.51085900580372    4.35928513186748
C        10.08677829321640   13.61943344773210    5.75265791010803
H        10.18026334312165   14.68693833516253    5.89557331004547
C         9.10933030448936   12.91886742562204    6.43200697066192
H         8.43730749457798   13.43115785399312    7.10702514909402
C         4.70824240009293    6.21061459114462    4.89935870064540
C         5.80668709649959    5.73038290693078    4.18316448394187
H         6.80287735793948    6.01442013739002    4.49180106562316
C         5.61760982895403    4.90487795232658    3.09251933050338
H         6.47244583506818    4.53785623094190    2.54237107078598
C         4.33737958062839    4.54634313394470    2.70096300648626
H         4.19289533571123    3.90112070432804    1.84670908675165
C         3.24298580498745    5.01806519950425    3.40771992983113
H         2.24376597572573    4.73970305189913    3.10384142628907
C         3.42204533582739    5.84409221621199    4.50039926281031
H         2.56798957588645    6.21147923385621    5.05204888089397
C         7.29902810528545    7.30179379378072    9.44618079426121
C         6.04577687594897    6.95571981834593   10.00973352236783
H         5.52869358363063    6.01330531117143    9.88037528997790
C         5.68885808487415    7.95094534673986   10.94866813430370
H         4.88082888277174    7.87199152308026   11.66611386569603
C         6.70396720643017    8.92862905533864   10.95532860704823
H         6.79130300808897    9.75168512013223   11.65573738144313
C         7.69451358861329    8.53068441142453   10.03075878354569
H         8.65086838249424    9.02079604016378    9.89496021112822
C         3.18019738599683    9.72772559918609    8.79766645822180
C         3.77359999547457   10.14067428238649   10.01731557484068
H         3.45746604112851    9.84084646880029   11.00915180239013
C         4.67983573412494   11.18858258274817    9.74316844656061
H         5.19053382727462   11.79656827889730   10.48133489297751
C         4.63621710692066   11.44523195869703    8.35879629928757
H         5.13329194707306   12.25819657399906    7.84562660958429
C         3.72543472872301   10.54291753951393    7.77340495135550
H         3.43005212618433   10.55413086099141    6.73273502448783
C         8.15679405785121    6.45198997699023    8.52869410100712
C         9.39762367018300    5.99467819749520    9.31301509722601
H         9.10034147655004    5.44615458542914   10.20385994484130
H         9.99343332133433    6.84959437512099    9.62133444984002
H        10.01724735909689    5.34615747042793    8.69763695905719
C         8.60261219132474    7.26362992444659    7.30370884229605
H         9.24627880573794    6.65381814037015    6.67140652824544
H         9.16016386290254    8.14896032589803    7.60427061437814
H         7.73211481147329    7.58126356232648    6.72164238039696
C         7.38881624331894    5.21656307768754    8.04691111430957
H         7.13308025274912    4.56917122556136    8.88241111052460
H         8.00484844458903    4.64437382303897    7.35661407496487
H         6.47644897791858    5.51361782031449    7.53059882966483
C         2.04447218379062    8.72883071799320    8.67653945586142
C         1.64077758192968    8.53597558075916    7.21154867186612
H         0.85677627838318    7.78453895990160    7.13826909594384
H         2.49748604076560    8.20867143755816    6.62260419722395
H         1.25852286904409    9.46391125490326    6.79336084952679
C         0.83291761011749    9.25241749507259    9.46416872231528
H        -0.01210419126412    8.57556754038939    9.35625113323992
H         0.54090971753151   10.23237150526412    9.09436552195731
H         1.06579089797095    9.34414120798523   10.52209163211097
C         2.47699100126279    7.36861697583726    9.25016083331478
H         1.65752727065625    6.65505717528675    9.17349824596138
H         2.74409009934047    7.45531314274904   10.30310008567618
H         3.33064416705767    6.97597786930811    8.68384434179247

