58
CSD_code = WIVCIP | q = 0 | S = 0 | Stoichiometry = C22H33CuNP | MND = 3
Cu        1.90735258089722    3.29701535178736    3.26248030399083
P         0.03365496583240    2.11007177434048    2.99933817010047
N         2.65798841808980    0.95237421986929    3.51057540185048
C         3.65104457218205    0.91119619552764    2.44774204866416
H         4.28958095454424    0.01830756143427    2.49594271604948
H         4.27952009654165    1.79740682758863    2.52660953374663
H         3.14656594411909    0.92488276947408    1.48229552697826
C         3.29473413081546    0.92752018476767    4.81730908435941
H         2.53062783916938    0.92005139027520    5.59275935751230
H         3.89170973239476    1.83262046592330    4.92425062749649
H         3.94958764545173    0.05697763748071    4.95952711016820
C         1.67120491145253   -0.07339125282408    3.34796042584262
C         1.99299166371092   -1.42204395868606    3.44545273799944
H         3.00771353489022   -1.71502507396091    3.67359812933960
C         1.02943753627995   -2.39287583243227    3.24839296798570
H         1.29163667807762   -3.43752970825604    3.32806389345114
C        -0.26805795690412   -2.02182516921382    2.93839637001305
H        -1.02213947463256   -2.77663716088897    2.77010744104521
C        -0.60108323592960   -0.68356895716795    2.84558545823994
H        -1.61480475668747   -0.41242383468397    2.59960684365962
C         0.35465056582274    0.30647392785604    3.05929643760948
C        -0.79532396069011    2.39706297602942    1.31526599070082
C         0.09464319684184    1.63890390461680    0.32593659738986
H        -0.16446496887236    1.90696936891986   -0.69728975948000
H        -0.01225303209026    0.56075616281276    0.43610052439519
H         1.14026332208532    1.90392416429807    0.49094629596529
C        -0.65160778272077    3.89768068428951    1.03955412318462
H         0.37214654900889    4.22363430171190    1.22907622997198
H        -1.31526581116078    4.48518900818855    1.66843704741407
H        -0.89413790933184    4.11148578909639   -0.00044906259004
C        -2.25371585311219    1.99266199349615    1.12993175577941
H        -2.90765648514181    2.54583768689556    1.79935758335192
H        -2.40709481038493    0.92740544914758    1.27714107395007
H        -2.55319902694893    2.22786755634062    0.10830058714492
C        -1.16128151938560    2.35682413343393    4.44674745122604
C        -0.25814365712774    2.17618918363516    5.67178242310703
H        -0.80625290512429    2.40469836759688    6.58472850992241
H         0.60297381028718    2.84308548842668    5.61085202398564
H         0.09898085254728    1.14817987066506    5.73699478936303
C        -2.34617991211583    1.40394612427957    4.56644796652567
H        -2.01192064319745    0.38152438865315    4.72655909013246
H        -2.99115961758367    1.43491093154676    3.69383634759843
H        -2.94202135405226    1.69726339993655    5.43094212812492
C        -1.63915029243162    3.80766915369442    4.39222968194400
H        -2.08315142129538    4.09197611323543    5.34541278605848
H        -2.38978558724176    3.94963895644183    3.61790653681025
H        -0.79778752649676    4.47350731343591    4.19583064971754
C         3.37763102783233    4.59812462551831    3.45099581013698
C         3.84716515356351    5.04658238511286    4.69926965605720
H         3.33306382080067    4.72753447961326    5.60199673072234
C         4.93906398726343    5.88452269094835    4.84606410941045
H         5.25213237313904    6.19576795229351    5.83543917503069
C         5.63233640094794    6.32502434231575    3.73348254172836
H         6.48702654917568    6.98039476252653    3.84065586940803
C         5.21258152163657    5.91426382849312    2.48145606227513
H         5.74208694348696    6.24909681036631    1.59763722755903
C         4.11862347686571    5.07584652890835    2.35448608444488
H         3.82521874488735    4.77957176488478    1.35114677542062

