93
CSD_code = WIVJOD | q = 0 | S = 0 | Stoichiometry = C40H44N6NiO2 | MND = 4
C         3.59170200449332    0.91225387431304    1.02324766457789
C         2.25126784246271    1.36784052138574    2.76407911263205
H         1.88324152984382    1.25398995364865    3.76137108253801
C         1.89891262410132    2.18494135085444    1.74814812385459
H         1.14855266608342    2.94637864461844    1.68544408575537
C         2.64832863602894    2.63636716470603   -0.51665170070598
C         3.64098656657422    3.57536328116076   -0.81027757844532
C         3.50503730825919    4.32417209527054   -1.97226472920324
H         4.26861472196427    5.03564686824008   -2.24308197951145
C         2.39469208355301    4.18458520747040   -2.78117915815424
H         2.29903606939782    4.78693468382079   -3.67250105812732
C         1.41010347266366    3.26922754266051   -2.45909713551483
H         0.55212692041983    3.16495461167420   -3.10522961008923
C         1.52220553552398    2.47116985969266   -1.32842571552263
C         4.81956185259381    3.79589093308762    0.11141975875844
H         4.57161407366775    3.39908535385046    1.10177960972798
C         6.05151400635993    3.04370110074099   -0.40067192981227
H         5.89420101301463    1.95341955703806   -0.31799873121264
H         6.92451111988903    3.30273386382504    0.19475236624458
H         6.24709007036499    3.28742370505519   -1.44310731120602
C         5.13666745902613    5.28403256585882    0.28266472835741
H         5.58912991322517    5.69874358395967   -0.61413889333787
H         5.83906431352843    5.41622277290670    1.10277290619476
H         4.23331465327030    5.84676949842436    0.50881396612785
C         0.48992485517767    1.40640567754903   -1.03643062849176
H         0.62225508299892    1.04513863178821   -0.01315243970377
C        -0.94171526514531    1.93038544289770   -1.15892069488110
H        -1.07543642294685    2.82920923632484   -0.55996026564510
H        -1.64057869275610    1.17489033730705   -0.80654811257116
H        -1.19364083785329    2.16358086992513   -2.19005604863026
C         0.72831807540532    0.21800943666813   -1.97266487480873
H         0.55646879804743    0.50255139588670   -3.00869054378443
H         0.05539792036854   -0.59936196554104   -1.72261414598261
H         1.75534948185539   -0.12591331793628   -1.87061078078263
C         4.02896953982478   -0.24145819481146    3.14908360171044
C         5.33307554163714   -0.63874013245136    2.75935966888191
C         6.05046715375054   -1.31782864220741    3.76836138611340
H         7.07213818711197   -1.59237804270230    3.56921981254239
C         5.45103816681836   -1.62289337922474    4.96981703466224
H         5.99887524276047   -2.15463278139359    5.73326069013739
C         4.13756447988590   -1.23123558695382    5.19190384607893
H         3.61673319195008   -1.45626758743838    6.11161641399676
N         3.29319677151618    0.60449736008144    2.30661633973962
N         2.72852884465973    1.89926283674094    0.69340776513281
N         3.45702731836451   -0.53213996672128    4.30339290359623
Ni        4.97235361846632   -0.00016961062316   -0.00000256697985
O         5.86648527500679   -0.39006706642633    1.61023009562488
C         6.35313283927010   -0.91239885816710   -1.02325969209047
C         7.69374735858735   -1.36760246758381   -2.76405466443219
H         8.06175571404509   -1.25366080563575   -3.76134261995032
C         8.04634008183914   -2.18456555820203   -1.74809662535955
H         8.79694572866913   -2.94575720072246   -1.68535370313239
C         7.29702411545909   -2.63623939286750    0.51665950184767
C         6.30469857715534   -3.57561277699548    0.81020278043889
C         6.44095290593457   -4.32452499744623    1.97208816183999
H         5.67764435068695   -5.03631387400540    2.24283576956226
C         7.55127387749702   -4.18464473478456    2.78098753597775
H         7.64718115618158   -4.78708883924855    3.67221908458459
C         8.53550162475789   -3.26885451080290    2.45902480696041
H         9.39343968736183   -3.16432809660793    3.10516718547446
C         8.42308185956641   -2.47069816877675    1.32845476018289
C         5.12615825169688   -3.79639892689913   -0.11147735257697
H         5.37401175249981   -3.39953996685971   -1.10183991585105
C         3.89404932129263   -3.04447251493112    0.40063328200413
H         4.05108414210548   -1.95415458091440    0.31792284551090
H         3.02109223487766   -3.30373793938092   -0.19474857794370
H         3.69857097987025   -3.28820967745109    1.44308400225552
C         4.80935352903426   -5.28460423625054   -0.28272249000313
H         4.35693932806606   -5.69939693605160    0.61406824139738
H         4.10700963420259   -5.41693829567705   -1.10285274913926
H         5.71282407768887   -5.84716542215083   -0.50883917304253
C         9.45491282564300   -1.40545967437122    1.03660702128481
H         9.32247243687221   -1.04415502464474    0.01335581613314
C        10.88678389081984   -1.92879699280668    1.15912816123610
H        11.02094841443962   -2.82751051864928    0.56010145729215
H        11.58531961934839   -1.17295302129695    0.80685294649449
H        11.13876249967324   -2.16195759463390    2.19025852579818
C         9.21592200409563   -0.21726872395468    1.97295097565060
H         9.38780750503422   -0.50185231524553    3.00895894829566
H         9.88849989028984    0.60042790228251    1.72304333838819
H         8.18874523924876    0.12620496070903    1.87085457892946
C         5.91556828600009    0.24113945433130   -3.14914461486626
C         4.61141122365661    0.63822632824703   -2.75939269980955
C         3.89382858148275    1.31704182142492   -3.76844441304978
H         2.87211695529034    1.59142141347696   -3.56927982068641
C         4.49312428953484    1.62207009267123   -4.96997396915170
H         3.94513514497823    2.15359599061875   -5.73345702982679
C         5.80666449945786    1.23064812975520   -5.19208307919942
H         6.32740046080032    1.45566748899084   -6.11185274938476
N         6.65156847605303   -0.60457548710418   -2.30663255748944
N         7.21661047927244   -1.89912571380797   -0.69338043973622
N         6.48738705733557    0.53179821670801   -4.30352292254130
O         4.07812430911143    0.38962850071005   -1.61019419815567

