93
CSD_code = WIVJIX | q = 0 | S = 0 | Stoichiometry = C40H44N6NiO2 | MND = 4
C         1.34807560564447    3.82732655292321   13.75183900113142
C         1.35681134142386    5.92232224355268   12.95972375785239
H         1.71784565705061    6.76934890504466   12.41690317544483
C         0.30076270130508    5.80724449310530   13.79294993982280
H        -0.45299846686508    6.50053765328727   14.10086837253674
C        -0.53434106776647    4.12275859855172   15.32232009017143
C        -0.12816409027336    3.04688764783613   16.15527059896651
C        -0.98721419040105    2.80365236120903   17.25219487352858
H        -0.72857477746575    2.01058239616891   17.93817930883308
C        -2.12661120166567    3.55668950468874   17.42004268653013
H        -2.79160821344067    3.36627104303460   18.24909840994228
C        -2.41462230781654    4.56945392710821   16.51139365203468
H        -3.29798078784453    5.18508754527796   16.60203101953748
C         3.24724354786196    4.49576468420142   12.29759616314794
C         3.37119687265653    4.59830223458421   10.90435784054453
C         4.60912639539669    4.33455754052624   10.33443367210685
H         4.72896963603098    4.41450646258159    9.26665783798816
C         5.69124633377465    3.97038625996943   11.11152006401014
H         6.63907189693924    3.74233167043960   10.64721808106722
C         5.57169564475148    3.94506759915999   12.48528035132203
H         6.43444392632429    3.70957922764049   13.08791421173650
C         4.36409463113186    4.24163422634579   13.10461597351199
C         2.23977046572750    5.06447902504139   10.01199267763123
H         1.29315155040884    4.96255061800426   10.55249639934674
C         2.45467928150869    6.54483689889112    9.66755385062034
H         2.55918568139171    7.15828110581210   10.55829216496230
H         1.61500588451746    6.91964211279767    9.08689565749575
H         3.36201916876870    6.66217772548387    9.07919636197807
C         2.13105362958446    4.28188881159054    8.69705825421839
H         2.91304047178181    4.57804701135182    8.00238907026669
H         1.17432429261072    4.49591467409937    8.22547592008820
H         2.20512864746430    3.20790535672899    8.84432286144314
C         4.32827608125266    4.37014658091087   14.61079941587064
H         3.35593910827776    4.76405349653553   14.92020694771520
C         4.51248871107767    3.01106785275647   15.28518501281388
H         3.65662573182247    2.35945899330460   15.03272824553832
H         4.54581750187191    3.12828724788936   16.36540267756612
H         5.42689710449070    2.52515832810990   14.95421508580998
C         5.39273814741485    5.36553418317721   15.08455888146222
H         6.39596734718055    4.97674662088207   14.93374266850413
H         5.26274140655610    5.56208009461491   16.14617247913625
H         5.30372145882560    6.30720679984641   14.54651810377223
C         2.60273661875221   -0.49763759973961   11.42659112888951
H         2.85769600571913   -1.52237975309446   11.23688348915982
C         2.01981488485235    1.60567380400282   11.22863436366863
H         1.73356135349073    2.49607734023448   10.71364915071674
C         2.13324486925404    1.36983962365851   12.57107655105843
C         2.58009475898990   -0.59543223060129   13.87885670203922
C         2.98850251096692   -1.96970780422594   14.00328688753928
C         2.99974420146323   -2.40375113227625   15.37048255756462
H         3.29797626716979   -3.42221715759357   15.56941124018517
C         2.63569083505460   -1.55830624326864   16.38299306785038
H         2.64402928068664   -1.89944103432916   17.40823450301097
C         2.24183366115986   -0.24518742924844   16.11732814817064
H         1.93606141129200    0.43084178632627   16.90119855366688
C         2.23154106501972    0.26799022631618    9.12862051535924
C         3.36259852915520    0.47022563206837    8.33360759060463
C         3.24903608628313    0.22809868157562    6.97126051755223
H         4.10480813741309    0.35769445681789    6.32943050245951
C         2.05024720088695   -0.18755078959424    6.42293418340137
H         1.98343378201390   -0.37766840149064    5.36216986242144
C         0.93847649383643   -0.36237574655253    7.22351501267568
H         0.01120552688865   -0.68826507403528    6.78053885519195
C         1.00588987851445   -0.13408213529846    8.59154194438068
C         4.67058656057440    0.90239737462207    8.95438553059695
H         4.45336120299886    1.49727368426350    9.84923615863964
C         5.50803976413775    1.76541109126099    8.00982118276949
H         5.94967398256503    1.16600153992578    7.21775954880770
H         6.31858312557173    2.23095576391131    8.56443521659424
H         4.90097702916538    2.54658595421990    7.55827729362568
C         5.47387923471485   -0.33261595131230    9.37694580311455
H         4.94427447886274   -0.91032663904044   10.12954193248519
H         6.43085608896876   -0.02699879790010    9.79311848677278
H         5.65789962199826   -0.97383548933404    8.51745707566527
C        -0.19849148746331   -0.36014680637810    9.47517501785322
H        -0.03593880890734    0.13445809235329   10.43769716197320
C        -0.36505531651685   -1.86118099270364    9.73184239811184
H        -0.50687708472473   -2.39403701953109    8.79420708881160
H        -1.23079233812774   -2.03722746039950   10.36566090518915
H         0.51221410994014   -2.26823813886414   10.22933156226814
C        -1.47452205605899    0.22892896137936    8.87109922802710
H        -1.31725752231324    1.26530857458266    8.57985455921047
H        -2.27525248378889    0.19579038379539    9.60603698281958
H        -1.79780265092354   -0.33233188424018    7.99858478511439
N         1.99358318064575    4.70808545793810   12.93437614949352
N         0.31743514997036    4.52729818401500   14.27871352268066
N        -1.62341633917451    4.84914019254021   15.49276704684934
N         2.32215260080987    0.45895889057861   10.53351667740764
N         2.48717341035364    0.02395125022525   12.63922855733336
N         2.21792989569880    0.21540025216932   14.87515212014019
Ni        1.72495745835812    2.04061548757512   14.28164612412025
O         0.93773633155638    2.35827184002974   15.96202317906341
O         3.28802874290750   -2.67038913038798   13.01815155892564

