43
CSD_code = WIVJUJ | q = 0 | S = 0 | Stoichiometry = C18H16N6O2Pd | MND = 4
C         3.80612824140536    0.73101654047917    1.73921005530845
C         4.58859711700256   -1.02416484455930    2.87558500807453
H         4.57322398300918   -1.77752778155064    3.63423498861742
C         5.48384882666808   -0.73259426581366    1.90399592340898
H         6.41213111310016   -1.20058891700363    1.64858023587689
C         2.36451206975039   -0.21628745181010    3.49760765394377
C         1.14923794814504    0.29138829975900    2.95217531333661
C         0.00953101257576    0.02220418858544    3.75232917472092
H        -0.94886831633652    0.35816407591529    3.38586136456770
C         0.13227530884037   -0.63578921537649    4.95329155799942
H        -0.73689661671108   -0.83039029932936    5.56384792842834
C         1.39022905329993   -1.05662989210742    5.37251376416783
H         1.53939914700947   -1.57888665459609    6.30646190155124
C         5.59829829225761    0.88697430055110    0.02475471315070
H         4.85719879744529    1.49554038126144   -0.50280996417412
H         5.92465147361029    0.07710825949390   -0.62847132567196
H         6.46426098646109    1.50401150334674    0.27505976227056
C         3.81598350394853    3.58653117065465    0.71011437137028
C         4.65217204442218    5.32008832731268   -0.42020636424452
H         4.68819585513657    6.04294191573680   -1.20743280761894
C         5.46116052328861    5.09319136561626    0.64069743092984
H         6.34915535377094    5.59844059688277    0.96045885992055
C         2.51414153325153    4.41216334543505   -1.20474855167782
C         1.26626274364222    3.91450348934833   -0.72562447097508
C         0.19230828714839    4.10669949178895   -1.63154926933689
H        -0.78807161258685    3.77640863191183   -1.32225927370010
C         0.40459077095833    4.68361728844567   -2.86161692752159
H        -0.41344115109769    4.81484342974384   -3.55411358170539
C         1.68588408582503    5.10173807960209   -3.20568070021351
H         1.90396376059379    5.55888910702588   -4.15967479260198
C         5.44162813280494    3.54247558473440    2.58457766754100
H         4.68273348683849    2.89872611116094    3.04129412452537
H         5.64785354766857    4.37998195417460    3.25205576908351
H         6.36383963558350    2.97452287031511    2.44200236943150
N         3.56032769076758   -0.12629397752600    2.75125478335493
N         4.98918602251211    0.34068122288481    1.20805341445444
N         2.47454641844132   -0.85726884208474    4.64767328812374
N         3.64220925915197    4.39597395322127   -0.35426622787160
N         4.93306644524887    4.03169950643039    1.33107861889924
N         2.71004792343959    4.97638728591529   -2.38252926769605
Pd        2.53160697025310    2.14983486025919    1.18459600980032
O         1.04069358420601    0.88619219708059    1.81854587359135
O         1.07679674724494    3.39808280668490    0.43597159855998

