81
CSD_code = WIVNUK | q = 0 | S = 0 | Stoichiometry = C42H31N2O5Re | MND = 6
Re        6.77771715904262    1.31558621457019   16.04590157184503
O         5.42760240748717   -0.29450525770425   15.96635949635026
O         7.77801453060481    0.30796860344628   17.23075487100494
N         8.01878200202185    0.46476793886133   14.51186342934993
O         8.15061270172297    2.82578570165656   16.52949308297978
O         5.95953883078522    2.26559423539205   14.96278582890638
N         5.80601997615920    2.05158424692784   17.89029576606142
C         4.11744657222777    3.45277440070554   18.82316776471669
H         3.14315932801854    3.90109925272337   18.71819868553372
C         6.13101386649834    3.09357316054657   20.01920571921397
H         6.76815878234698    3.24119556673417   20.87719523598767
C         4.58549181432903    2.59678591263616   17.83698986256150
C         3.69526476543971    2.27890395080967   16.67918747475285
H         2.65406202889887    2.24441942860053   17.01443558334061
H         3.95978469322428    1.31262819208727   16.25740193823081
C         4.92342864339133    3.73885027879825   19.91551647101334
H         4.59648385811234    4.43065918312303   20.67704442440853
C         6.56335844044614    2.22867612257821   18.99656781683907
C         8.32076891700859    0.57086541743159   18.37606475642599
C         9.57120996533011   -0.14350714265769   18.70783008410977
C         9.30496201821771    2.90068236347490   15.97506449631783
C         7.60451143556326   -0.61444704871928   13.80014524147228
C         5.49026925653220   -1.22896815836837   15.07454085260912
C         3.15941001067458    2.95783530868608   14.28795711573215
C         7.78857000730965    1.51657419778633   19.21238833415974
H         8.30355955683100    1.73523991456614   20.13489485308528
C         2.79728946664586    1.40222216665356   12.49165025970142
H         2.98769234015416    0.44021739266227   12.03888600651198
C         3.38758490164234    1.71596236439085   13.70225169153325
H         4.07510404181074    1.02036332064300   14.15819562549372
C         2.35016565280030    3.88254724910376   13.62992604713402
H         2.19830570144073    4.85244139641064   14.08004400159599
C         4.62157879152464   -3.58276404347075   14.91464887830496
H         5.62194490442987   -3.92739109596493   14.69965268171166
C        10.00716718457301    0.54822577796515   13.17269205494315
H        10.95099619944283    1.02652498111619   12.96714530502247
C        11.06619258069578    4.69819148303248   15.79120768609331
H        11.07681882029455    4.57903143637605   14.71837785800430
C         9.57476116770807   -0.50815261008731   12.40634078869098
H        10.16843657189084   -0.87388776153620   11.58191505979011
C         9.95895404536514   -0.41105087233187   20.01848896605028
H         9.32047018786001   -0.12370507917261   20.84036038894227
C         6.42030873766681   -1.36358481814827   14.07957406953497
H         6.25496414059035   -2.18215364351552   13.39475536978879
C         1.74925110350100    3.55862432476821   12.42820925922286
H         1.11562152762989    4.27818145803828   11.93069757145890
C        10.20638543894037    3.92665081290324   16.56664082007652
C         4.39049202647543   -2.22903671196959   15.14447336101031
C         9.21696514815797    1.04048853668090   14.23063354740864
C         8.37260077756915   -1.09913143753790   12.72763048801967
H         8.00865146714854   -1.94552653745411   12.16845020779207
O         4.07550201463281    4.49639458854769   15.83299591569199
C         9.79553066124723    2.12501995397453   14.95336905816646
H        10.80241313196430    2.35942235722103   14.64002045167598
C         3.74308073299553    3.36283713030352   15.59469397852800
C         2.06387220978725   -2.72076265292278   15.53166931229316
H         1.06687954860545   -2.38140743979753   15.77199832248725
C        10.16658023766423    4.13317787829653   17.94296089007264
H         9.48467373720090    3.54333533246677   18.53704891957306
C        10.99017702464853    5.07094060069736   18.53596318847437
H        10.95761652730532    5.21703329966734   19.60600263974394
C         2.29998293473319   -4.06379460698685   15.29063842417464
H         1.48974003350525   -4.77595067216090   15.34399158439451
C         1.96712752386377    2.31424142432578   11.85973506048085
H         1.50126114559007    2.06053792760448   10.91867560246623
C        11.57884090148421   -1.21631971282949   17.91664889749497
H        12.20820506652192   -1.52859995445014   17.09629585947872
C        10.38972206655927   -0.56228182617062   17.65972703060384
H        10.08711380391875   -0.35685551016464   16.64250356980253
C        11.96154263148395   -1.47084026022294   19.22326961819665
H        12.88985261010767   -1.98405555336353   19.42609727610773
C        11.85280358430911    5.82669700222361   17.75946003674359
H        12.49389467048292    6.56348813223990   18.22089731675466
C         3.10230510794796   -1.81073948611125   15.46719545743524
H         2.91910677674262   -0.76376156637878   15.65447032035989
C        11.88238945413330    5.64254208535309   16.38697496687611
H        12.54184559571541    6.24267725792425   15.77690881014600
C         3.58229566122863   -4.49184207482340   14.98853182702084
H         3.77373062252655   -5.54063012779854   14.81361451441459
C        11.14683384028520   -1.07135308061360   20.27055784855095
H        11.43807564862167   -1.27986052030758   21.28968455093797

