96
CSD_code = WIVPUN | q = 0 | S = 0 | Stoichiometry = C30H56BCuN8 | MND = 4
Cu       13.28883789110814    8.13853879552285    9.96623244183091
N        12.00909764686558    9.60843894815320    9.25372770275307
N        12.62001893064431   10.35123092022132    8.32475151665741
N        14.77158559014285    9.46168294383604   10.40818685207357
N        14.84165403412619   10.42407359168474    9.48127687998284
N        14.05342842194224    7.76285784073818    8.06935461881641
N        14.50584255596026    8.89536210874877    7.52140923592808
N        12.41487568229431    6.46646520181203   11.15292135429253
N        13.04081853949049    5.90982273206881   12.31280903895322
C         8.39330931117127    9.99042498865321   10.18449101224890
C        10.31986157987274    9.30057975259444   11.61577837258488
C         9.54846817822598    7.82558575300310    9.71361318763457
C         9.74358978949340    9.27031686246000   10.19500523613498
C        10.72115266674124    9.93496381352822    9.26618559382336
C        10.49117890466370   10.91786277807112    8.30154978633668
C        11.72436087564749   11.15906089700130    7.72066085154468
C        12.04791013482280   12.07160222514403    6.57954273767470
C        11.03528017974632   13.20989545172312    6.46741627499129
C        12.09028083724618   11.25777431416979    5.28141007288685
C        14.25080211893692    8.79061957658194   13.30631261632954
C        16.58793358025675    9.59421429956463   13.69204239742705
C        16.18429279664046    7.60972736632058   12.22278476922997
C        15.63434015767176    8.96788329650691   12.67330558680090
C        15.49157782816787    9.84013873488622   11.45830625534454
C        16.04264479618950   11.09720259792854   11.20137572090336
C        15.60622261588519   11.43955256440203    9.93317936322610
C        15.83951145153279   12.71588281196592    9.18752533204605
C        14.64153547485793   13.64773046043408    9.40157713955241
C        17.13443637546035   13.39510596828088    9.63004601820622
C        14.76513778306597    5.02170593268898    9.08081809822582
C        14.74370923366467    4.34129483422680    6.67493442174127
C        12.64029437435305    5.18316459802344    7.73124351925961
C        14.16823708703950    5.32019471590769    7.69963436560993
C        14.50408114490426    6.74249993430154    7.34624744519474
C        15.27765392564374    7.23544788023054    6.29449360635551
C        15.25822833271776    8.61255048184635    6.43836486823927
C        15.98007442022204    9.63775863661192    5.62164961467037
C        17.29037165901505   10.00946134077531    6.32456715474024
C        16.25421360774116    9.13460978551304    4.20540400139958
B        14.14311459978709   10.26673612094110    8.11942885107842
H        11.51543941178797    6.83971725519539   11.44544693294525
H        12.25491879380397    5.77199204387670   10.42154841379043
H        12.66432437398412    4.98901066299660   12.53794436010554
H        14.03653799389197    5.81878392264634   12.13977557719294
H         8.51231092402667   11.03345991872281   10.46832945704242
H         7.93808257378074    9.94919288351417    9.19788410041868
H         7.71665219029064    9.51588591761222   10.89265063911750
H         9.73154279274369    8.67762880637297   12.28745502898494
H        11.35293904568842    8.96092615143386   11.60781739986321
H        10.30776558334316   10.31937789309888   11.99702675795033
H         8.97813603398208    7.24691493582463   10.43839421421534
H         9.00917207127116    7.81802264150158    8.76843943310048
H        10.51652014199109    7.35946148790927    9.55054722065011
H         9.56183222839489   11.39096787931595    8.06340497580847
H        13.03698601108845   12.50766523074935    6.74635406911491
H        10.96068688382578   13.75010400137722    7.40842652043745
H        11.34418964212725   13.90742920988825    5.69176901030839
H        10.05182064087768   12.82643969738150    6.20734582568971
H        11.11454556151769   10.81865256812147    5.08338090672772
H        12.36145355255724   11.89465666179708    4.44192443868304
H        12.81845097895144   10.45461027156900    5.36375502787719
H        13.86158946601895    9.75224147251873   13.63376328505638
H        13.56815704782741    8.36850128622444   12.57440412817806
H        14.30250156828183    8.12336736408710   14.16323873107239
H        16.69388537996689    8.93493070969823   14.55128618320471
H        17.57219911603243    9.75112058228033   13.25627712082947
H        16.20492184470080   10.55045750650267   14.04043554085177
H        16.17819459085381    6.90081397146838   13.04832259124818
H        15.57471008388120    7.23035483748526   11.40610862847642
H        17.20585976947100    7.71652658394418   11.86305015213961
H        16.67179998773008   11.67562456622113   11.84463299848109
H        15.91715533474750   12.49189083413455    8.11976754909823
H        14.54796228120491   13.89921164922236   10.45607461295047
H        14.76863817753530   14.56774653815629    8.83467148811868
H        13.72343693627784   13.16101672110125    9.08186953548539
H        17.97614570984786   12.71269142371082    9.53643218444514
H        17.32676413645029   14.26880992458671    9.01090818668160
H        17.06421462497322   13.72070256120926   10.66480318489097
H        14.42375884314639    4.05662625699383    9.45275091675039
H        15.85143702741124    5.00345895527670    9.02201307888109
H        14.47766658270460    5.81093698733587    9.77145544067771
H        14.47641996500430    3.32166285262896    6.94645097530517
H        14.35013568610859    4.54648806101312    5.68217972927650
H        15.82814314399558    4.41312356083559    6.64049375277871
H        12.21140821988703    5.98991675875170    8.32133103239968
H        12.23896106063265    5.25826370935328    6.72281784987142
H        12.34359348008270    4.22113966458287    8.14686394307890
H        15.77823016895175    6.67247114457833    5.53506706713296
H        15.35774285083713   10.53457120254554    5.55273939508118
H        17.93603983123145    9.13662966439632    6.39739336316593
H        17.81416586900053   10.78376248619599    5.76783590481042
H        17.08925262325685   10.37290891910721    7.32922993506492
H        15.33151632771163    8.81272809002668    3.72792786356986
H        16.69427856243025    9.92948168261975    3.60699718288748
H        16.94798070231068    8.29780609336322    4.22144242198195
H        14.49386045557933   11.12349347986017    7.38797982327279

