46
CSD_code = WIVQUO | q = 0 | S = 0 | Stoichiometry = C19H21IrN4S | MND = 8
Ir        3.48174246793031    1.40877459753251   10.85969158079060
S         2.50926295982278   -0.73361332690428   10.02041004554857
N         2.66422528135716    0.23180880062214   12.35058014146641
N         1.67760607751373    2.30317805398508   10.93115985709474
N         1.55907602104879    3.44825018348783   11.15340064444858
N         1.32780226223558    4.54200210834213   11.35636205941042
C         6.24370528317512    1.38634976088648   12.89580932192866
H         5.77822100573117    1.89890384881307   13.73410544643555
H         7.30257338236149    1.65134476956057   12.87797785657024
H         6.16698359731897    0.31474785775286   13.06935202646837
C         2.23070366656998   -0.85555274934221   11.70266975139453
C         1.63274197737712   -1.94223444426454   12.37544787269050
H         1.30876704372297   -2.79278189832542   11.79808111897572
C         1.48972652088301   -1.87309889830536   13.72702880433481
H         1.04511418054243   -2.68657368202390   14.28181114943905
C         1.76768932533442   -0.57093250627522   15.81984189178790
H         1.33224259366546   -1.38476913258330   16.38128460344403
C         2.16170228725121    0.58067097808368   16.45069956741660
H         2.04463144294963    0.68280086119105   17.51885143631432
C         2.70419592873521    1.63793011637943   15.71056047402286
H         2.98908177614600    2.54859615022789   16.21610198040805
C         2.86707143819864    1.52727904364101   14.35467263086530
H         3.25895011213936    2.34168506178854   13.76526008170975
C         2.48844351097648    0.35009561281034   13.68759817522026
C         1.91134315265027   -0.71476299823830   14.43006164543510
C         5.62878421109580    1.00257274871535   10.41051053163389
C         5.04196662456185    1.79496093417793    9.35488432612734
C         4.65499314873269    3.04610478847437    9.90314130213167
C         4.96163459970669    3.02218174496061   11.31359993723574
C         5.61127709015986    1.77052064444662   11.59833835507851
C         6.31932996282755   -0.30617450099236   10.20578108991960
H         5.75352595983814   -0.94117952015156    9.52687532201051
H         6.44382381575177   -0.83601734110822   11.14750709458020
H         7.30769040434519   -0.14292639323952    9.77203279894845
C         5.04512282217824    1.41875301534803    7.90964175473590
H         4.84816011744090    0.35632581529659    7.78310951726319
H         6.02273184703766    1.63939726889243    7.47618971696963
H         4.29119262010876    1.97509486110996    7.35814021085848
C         4.19414541600786    4.25682261468058    9.15556748487665
H         3.73775473399442    3.98371422174284    8.20761191420047
H         5.04816192659907    4.90556768304993    8.95259575612400
H         3.46953604203016    4.82618056835934    9.73494957985409
C         4.88478254557981    4.22205102249666   12.20288105386020
H         5.08513394687283    3.96444555477003   13.24001052618695
H         3.90335281335402    4.69398336345958   12.14299599623840
H         5.62429605613985    4.95922273666904   11.88551556754670

