91
CSD_code = WIVSUP | q = 0 | S = 0 | Stoichiometry = C35H51ClNOPZr | MND = 13
Zr        9.38625640421578    2.79023337411841    5.62077361018444
Cl        7.46078171598192    4.05188237431189    6.36470725493200
P        11.25536937147065    4.59990603886876    2.04971308790057
H        10.10126492559225    4.84606161508292    1.28660833245858
O        10.76231846662847    2.80848185107495    3.99926674855630
N         9.23774989975731    4.37777624341391    4.03040660411459
C        11.54380936208124    3.89240421304395    6.33106809298283
C        10.49236747438347    4.54563185892504    7.03069285538457
C         9.93952371371492    3.61416112471051    7.94950478298567
C        10.62349925326026    2.37391382956144    7.80205402826122
C        11.61558475402049    2.54801972473747    6.79173425419932
C        12.56997952234940    4.56668373456577    5.46080721776471
H        12.10281209408935    5.32766822087394    4.82456083913713
H        13.04619569872018    3.83571851415959    4.80226876684576
C        13.64252572570130    5.24165339346256    6.32165905554248
H        14.39078999493722    5.72060399413382    5.69378848293628
H        14.13646060719067    4.50777280972242    6.95395153691163
H        13.19182602541664    5.99378458493687    6.96417100305802
C        10.12267744822630    6.00167961746903    6.94464370887626
H         9.04693464029793    6.12618217796452    6.80059062435145
H        10.63651815212699    6.48958601012530    6.11837351615947
H        10.39813974686678    6.51726180705703    7.86756070602283
C         8.98084608054128    3.92666152159212    9.06328123552096
H         8.45433970878476    4.85765396065033    8.87120441837147
H         9.52707741943425    4.02543006130696   10.00552254689179
H         8.23825123464839    3.13749206076544    9.18381567266730
C        10.61159639476480    1.32904220312090    8.88756242605124
H        11.20598532125072    0.45817596158166    8.62716586430018
H         9.60143283741689    1.00717240191679    9.13876515649251
H        11.04379759778287    1.76186642322540    9.79413843027781
C        12.67111062995195    1.56372815336113    6.36572346209482
H        12.60296887168948    1.35735757939458    5.29545286225388
H        12.57674379306889    0.62474547965660    6.90737308481046
H        13.66716066381385    1.96222999495894    6.56719784470705
C         7.84317598029979    0.93848269177610    6.00145119881815
C         9.09481016403254    0.27541937317133    5.78612569765541
C         9.44354244794181    0.44207120969919    4.42011611107906
C         8.42734451558947    1.20369234936722    3.79023445711470
C         7.42721637595501    1.49195552408340    4.75342346377495
C         6.98197774519894    0.84440667377616    7.23594443141713
H         6.38674124361065    1.75597819025234    7.34198254781011
H         7.60573476685511    0.74754362678216    8.13070366747556
C         6.04095020231862   -0.36288671873606    7.15844755753423
H         5.42307496592614   -0.42446142853333    8.05167436242141
H         6.61165364214629   -1.28395087136911    7.06510960040198
H         5.39011403358009   -0.27596000104568    6.29298163409958
C         9.67054434110004   -0.80971378958599    6.65898711646584
H         9.25730048666252   -0.77542820154653    7.66272751067601
H        10.75650434636451   -0.76290671067874    6.72110723385259
H         9.41166638891693   -1.78201099996458    6.23050577120893
C        10.59653494059403   -0.22180607061956    3.72116542790876
H        10.22929061945394   -0.95362782215967    2.99772260273961
H        11.23093384779031   -0.74469371603884    4.43278572901218
H        11.20545309195458    0.50699909323630    3.18693764175896
C         8.30676813450055    1.49311004481482    2.31920616187007
H         9.09524277617662    0.98617029882473    1.76651877223136
H         8.36458983249472    2.56560740451196    2.10437310817763
H         7.34769340168843    1.13217360663329    1.94290925974164
C         6.06309489683754    2.02984475324608    4.41991649106854
H         5.61682076534354    2.54589363832488    5.26718421033819
H         5.40311420954147    1.20510874671506    4.13530217800363
H         6.11318014525632    2.71857052122670    3.57676237594078
C        11.72613777602728    2.99637535804801    1.18890825088499
H        10.95086737367405    2.24598039230424    1.38090962741450
C        13.05922891308206    2.49067604710722    1.74235603767036
H        12.95977876357793    2.30366419905524    2.81431639749385
H        13.82069209705073    3.26392184090023    1.60453007641166
C        13.49357042887389    1.21555798601742    1.02611310627861
H        14.45466408851445    0.87942021753638    1.42129857926823
H        12.76206456797176    0.42470118715042    1.21101409023899
C        13.60231633573273    1.45914581665312   -0.47585235975203
H        14.37517701320023    2.20722333199484   -0.66676401607731
H        13.89516994609300    0.53762577975874   -0.98332079347355
C        12.27022660092802    1.95686635893629   -1.02865760641064
H        11.50797067508890    1.18705704186123   -0.88408376898057
H        12.35683520985001    2.14396428942027   -2.10106557754576
C        11.83825364004067    3.23588912691137   -0.31663373236216
H        12.57357914351845    4.02346777331404   -0.50424639023516
H        10.87808977418374    3.57629705108697   -0.71443813128806
C         8.67359048444480    5.60846240224936    3.68457310440632
C         7.28334752408423    5.71396084710088    3.60506596248487
H         6.68060038714851    4.84033733174418    3.80106253949244
C         6.69291194265443    6.92484946948889    3.30332784765877
H         5.61655910207629    6.99291889557325    3.24799557342296
C         7.47061570451094    8.04914421017020    3.07558677282820
H         7.00478167508542    8.99480968844013    2.84256686034927
C         8.84901331429884    7.95489941289735    3.15885275104167
H         9.46360794795535    8.82761114713600    2.99295468395589
C         9.44985880949659    6.74749189303198    3.46136814533855
H        10.52751003024077    6.69053130663034    3.55080477763349
C        10.30631687229114    3.87704526746354    3.47054275724991

