82
CSD_code = WIVTEA | q = 0 | S = 0 | Stoichiometry = C34H43ClNPSZr | MND = 13
Zr        4.29417453631574    2.64036315618847    3.34110391378748
P         3.54012278769912    7.24208444029707    3.99708938659083
S         3.23279749308401    4.81283989414391    2.26012878415903
Cl        3.80739707681640    1.95992043997422    1.08754714369475
N         4.08062725449641    4.55280508342035    4.67298475927429
C         6.45156470615403    1.54340591354733    2.79148839928727
C         6.52384189330155    1.75831256598547    4.18851675751627
C         6.57686305900257    3.14721916403195    4.42403834925515
C         6.53088614927034    3.80465158395760    3.17310001438215
C         6.46766868962195    2.81651132330010    2.16584274863155
C         6.47849201379168    0.21372999824960    2.09151549309616
C         2.05924208298339    1.58662241596396    3.65752288911872
C         2.93761197748533    0.48617646539036    3.53046851687964
C         3.81216312470979    0.48356721387713    4.63552964968356
C         3.48325233969814    1.58139494618133    5.45912297210726
C         2.39207513732553    2.26149419148883    4.85737210499513
C         0.93632684940463    1.94362139856125    2.72383085259123
C         3.63845648583514    5.42001123416193    3.79779354594328
C         4.53787187876992    5.02755644669793    5.91742706394215
C         3.95880023752762    4.58260915170753    7.10530083491838
C         4.43199495314261    5.03742303795626    8.32236229251853
C         5.48267512905934    5.93777984488974    8.37766646979764
C         6.05557041881232    6.39369622878939    7.20190158211105
C         5.58625941755896    5.94943986084625    5.98108402247171
C         1.89853102549526    7.52525428092417    3.23109910391807
C         1.86954028555303    8.22427315876834    2.01727559966392
C         0.64613150545284    8.59531384497106    1.47891121490410
C        -0.54795079696845    8.29324167128520    2.10975329653725
C        -0.50005625236962    7.55276236924609    3.28117975054984
C         0.69640362714518    7.14167336780248    3.84591419524769
C        -1.86400487627717    8.74003157782467    1.52311835478281
C        -2.61263251332191    9.65077705213455    2.49863599167168
C        -2.72332949562643    7.53462974234656    1.13578949011602
C         0.64919475049375    6.28998158493216    5.09429868447070
C         0.27609726068851    7.14426587916516    6.30772206039681
C        -0.31361613583781    5.11138011071975    4.93617914361626
C         3.13169752745119    8.55262720914472    1.25990772056379
C         3.14035957695259    7.84554012227630   -0.09564729561155
C         3.31318934200625   10.06215072303517    1.10617837397371
H         3.14154467969312    7.23968165950589    5.34052724884110
H         6.67732428602408    0.99345858890298    4.93963145308852
H         6.75979435928696    3.61086686117941    5.38389453150959
H         6.66072044134907    4.86781359780019    3.00044100455246
H         6.51618222485261    2.99456444824283    1.09731086043873
H         7.45868568139841    0.04382003854190    1.64145425521183
H         6.28291022869892   -0.59776059048203    2.79262604567738
H         5.73428805916798    0.18366252359570    1.29345115566544
H         2.88855772669176   -0.26910307028848    2.75664014685904
H         4.50556227470923   -0.30963651535989    4.88427383403524
H         3.89996269488115    1.77366100914500    6.44024263212539
H         1.80955643659164    3.06421603464523    5.29444015503029
H        -0.02867618682893    1.84271454737234    3.22486495273404
H         1.03250261680951    2.97492579781534    2.36806545040140
H         0.94772972505905    1.28545323042096    1.85677150450956
H         3.12472999235551    3.89876429157465    7.07212109196068
H         3.97079130218819    4.68911504575819    9.23484118386627
H         5.84914309924357    6.28627599212965    9.33111432109500
H         6.87087183434057    7.10083133683507    7.23358206158057
H         6.04238803240173    6.29487382284935    5.06266602357996
H         0.62242042945900    9.13798739735270    0.54512204659628
H        -1.42468768962105    7.28581463602809    3.76862955654060
H        -1.65404622165111    9.31471391678434    0.61408231232401
H        -1.99110163430563   10.49878121319924    2.77835288939312
H        -3.52437764159169   10.02581621923353    2.03872163170717
H        -2.88323491890486    9.11135730713723    3.40299941511251
H        -2.18148385467806    6.89003104744126    0.44739823920434
H        -2.98956409407715    6.95065855201531    2.01332212736774
H        -3.64044784323290    7.86569599614289    0.65325913138400
H         1.64275094926158    5.86036940193217    5.26701967026678
H         0.98826770028988    7.95794296337724    6.43504105303018
H        -0.71323696343370    7.57706815535429    6.17873232680624
H         0.27534669479050    6.54032804241869    7.21304427442035
H        -0.22896834714062    4.44430145293238    5.79257927925514
H        -1.34680376945502    5.44280726746137    4.87802673544816
H        -0.07771653241121    4.55488890605132    4.03158283823393
H         3.98553728976690    8.16469562980380    1.83222547787223
H         3.02579522612135    6.77334446323921    0.04548650323743
H         2.33065388754952    8.20048309270059   -0.72826956369058
H         4.08248685910966    8.03048085809009   -0.60694590655635
H         3.32033180044688   10.54201591147182    2.08291457033956
H         4.25551086660604   10.27717419200803    0.60724417481018
H         2.50800777565027   10.49400603332274    0.51691707249990

