124
CSD_code = WIVVIG | q = 0 | S = 0 | Stoichiometry = C43H61N9O7P3Rh | MND = 5
Rh        0.00002624757404    0.00005220493282    4.19693723380808
H         0.00037369845416   -0.00038738898425    2.66837988223554
P         1.05958406213707    2.06188177787311    4.19525048292192
O        -1.15151131891011    4.89894930120373    5.49509529959358
O         2.19271586032751    2.86028828566364    7.75560213334331
O         0.00000607668161   -0.00012163134071    7.20025549311300
C        -0.00022208792048    0.00060699486249    6.05388201930056
N         0.19247716920045    3.53543519069631    4.30086283052177
N         0.44870804611995    3.75630175346405    6.62504970983727
N         2.03103102218295    2.37444418796116    5.56058277215412
C        -0.56219784744527    3.88696961853505    3.10070718023892
H        -1.63155518768153    3.91878398204971    3.33401144217815
H        -0.37767594176552    3.09283759787529    2.36824188631847
C        -0.12821344566895    5.23450624474906    2.54320381005548
H        -0.71005575136037    5.46416128126725    1.65452375939233
H         0.92687453132130    5.21905867459741    2.28068239954567
H        -0.30165336532181    6.00965946650979    3.28439919117735
C        -0.23742800473995    4.10291585272327    5.47549937015089
C         0.04443329117439    4.41142543851735    7.87234514909675
H        -0.62334566754984    5.22805056735193    7.59583696251199
H         0.94747498669950    4.81136221538561    8.34020189994828
C        -0.64440195959785    3.45188527096232    8.83265830423765
H        -0.87504110702268    3.97595092111853    9.75607867758581
H         0.01131511848796    2.61630442787560    9.06333621255088
H        -1.57316377266708    3.07217377901928    8.41368278729044
C         1.59035960432965    2.97496102705616    6.71326473686866
C         3.13760393905245    1.43491793333229    5.71805664542127
H         3.10352273505124    0.76639236734092    4.84969870980757
H         2.98098982451664    0.84453426183608    6.62607353634074
C         4.49062916495032    2.12132588842047    5.79085461786735
H         5.26140605988095    1.35968596557056    5.87829140161603
H         4.53074711338509    2.77048205763854    6.66114978816294
H         4.67143841011439    2.70895789227780    4.89365598825486
C         2.26213784559269    2.57313569684298    2.91117205867788
C         2.98014862830613    3.75367674383580    3.08272485907055
H         2.80339131911566    4.36032905532126    3.96034111329608
C         3.91030351955926    4.13877548237727    2.13610661326852
H         4.46886892085644    5.05367667097373    2.27020921340302
C         4.12910955963852    3.35057449357910    1.01580182791902
H         4.85919881853966    3.65289566268049    0.27988492386366
C         3.41324461725523    2.17866445803238    0.84058037353000
H         3.58209753972060    1.56576549122747   -0.03251023606262
C         2.48056450894769    1.79152501327397    1.78759972617075
H         1.91165573661792    0.87976203667420    1.66324578696663
P        -2.31541298670231   -0.11331073689905    4.19522720250851
N        -3.15800737271326   -1.60101765402849    4.30082652419389
C        -3.08511666385554   -2.43035294663273    3.10067062837920
H        -2.57809561778632   -3.37240046974820    3.33401381814966
H        -2.48954067867560   -1.87355884266783    2.36823021085283
C        -4.46910993651369   -2.72815399367806    2.54309527899685
H        -4.37707949751466   -3.34687199343453    1.65441588145685
H        -4.98319403722181   -1.80665631123748    2.28055340059352
H        -5.05377721479131   -3.26589038445130    3.28425560592941
C        -3.43457461043868   -2.25708445911873    5.47544088812112
O        -3.66695829385854   -3.44671104845942    5.49500109512758
N        -3.47746057102742   -1.48959242412107    6.62500907585651
C        -3.84273687028206   -2.16725773171370    7.87229108967624
H        -4.21617221621527   -3.15383671321516    7.59576499193740
H        -4.64054089848895   -1.58507709291272    8.34015523762542
C        -2.66733943188712   -2.28416754437233    8.83259526975655
H        -3.00590351306164   -2.74591276045007    9.75601927469262
H        -2.27146310815330   -1.29855026290502    9.06327152862804
H        -1.87418863486039   -2.89871542117769    8.41359719782831
C        -3.37156635333586   -0.11024180390041    6.71325494933768
O        -3.57336208983398    0.46873625599725    7.75561000416454
N        -3.07180785949922    0.57168012777769    5.56059353103351
C        -3.35946998967062    0.67255420001097    2.91117627764943
C        -4.74085150244641    0.70414096606748    3.08274498725242
H        -5.17786305326539    0.24774329608479    3.96035743976430
C        -5.53942165989202    1.31715668381268    2.13613416172912
H        -6.61103076179611    1.34345796313463    2.27023985351209
C        -4.96621797288074    1.90073978363293    1.01582551403023
H        -5.59307211473913    2.38186919463294    0.27991117067091
C        -3.59338353958347    1.86669834239931    0.84058927297188
H        -3.14702870505960    2.31938335742439   -0.03250356491887
C        -2.79178529176255    1.25251002465645    1.78760023134853
H        -1.71771987909319    1.21565576496983    1.66324140321562
C        -2.81142877866015    1.99973024574712    5.71823018951973
H        -2.21531844770680    2.30456337091977    4.85001015379144
H        -2.22199215981242    2.15922521271894    6.62631811060137
C        -4.08227800769042    2.82835111954107    5.79097538278024
H        -3.80813318254012    3.87666140677555    5.87855084484401
H        -4.66472755553600    2.53843127485776    6.66107189697454
H        -4.68138244653501    2.69114044105472    4.89370104750787
P         1.25586598450417   -1.94859142304571    4.19524814093170
N         2.96556131083181   -1.93450143099620    4.30084656807082
C         3.64731345284456   -1.45671792351651    3.10067878311914
H         4.20953535750791   -0.54652332219551    3.33395297400191
H         2.86728339365781   -1.21947601274115    2.36824055369161
C         4.59730478064110   -2.50632791510658    2.54315357671398
H         5.08708939755516   -2.11726431005369    1.65446175244214
H         4.05637479331220   -3.41233683105248    2.28064603105249
H         5.35534100786043   -2.74369959412324    3.28433322338844
C         3.67195886858910   -1.84590611135582    5.47548991674089
O         4.81841361208478   -1.45237040482475    5.49507477046585
N         3.02869318443580   -2.26673674876263    6.62505238655956
C         3.79822521758918   -2.24420423624585    7.87232792607215
H         4.83933572996457   -2.07425520032821    7.59579188901471
H         3.69303942289778   -3.22620575640034    8.34023157895927
C         3.31172872357712   -1.16783027323462    8.83260863438117
H         3.88091667922522   -1.23010372365141    9.75601908026604
H         2.26023750263655   -1.31786436816806    9.06331249004026
H         3.44729450111317   -0.17366738070482    8.41358420275757
C         1.78114769606503   -2.86466576807882    6.71328493012995
O         1.38066429070592   -3.32898934594545    7.75564796030051
N         1.04079137164670   -2.94612378521686    5.56058341545304
C         1.09728595709139   -3.24569520090451    2.91120158454731
C         1.76062840460048   -4.45779170640291    3.08277971771661
H         2.37436897901559   -4.60803613145875    3.96040575425303
C         1.62907177514502   -5.45585125569690    2.13613488478357
H         2.14211963684396   -6.39703422087617    2.27022403328996
C         0.83709569154016   -5.25119789606906    1.01581517607697
H         0.73388460709578   -6.03461167847444    0.27987624496350
C         0.18013279024307   -4.04528037486337    0.84059461171764
H        -0.43506881199717   -3.88504623757414   -0.03249971207187
C         0.31119504852441   -3.04400686420163    1.78763147731174
H        -0.19393955680981   -2.09541935764686    1.66332622696294
C        -0.32621203030457   -3.43464406410880    5.71789782348168
H        -0.88792006047562   -3.07110958032741    4.84921233492040
H        -0.75936693292744   -3.00336687869501    6.62575510767395
C        -0.40798777869098   -4.94977319028657    5.79113260152707
H        -1.45313342301898   -5.23627138881233    5.87827671700907
H         0.13366662231758   -5.30852614054092    6.66205806694693
H         0.01080378979231   -5.40087861748436    4.89423093270528

