86
CSD_code = WIVVAY | q = 0 | S = 0 | Stoichiometry = C29H40ClN6O7P2Rh | MND = 4
Rh       -0.56302001475766    3.17492700292378    3.78603657540412
Cl       -0.56336245389115    5.39256542588770    3.78656951218123
C        -0.56251250071355    1.34026913700695    3.78600335924766
O        -0.56247505103416    0.19591821609228    3.78641139433587
P         1.66492072837030    3.31038160375739    3.59986891309127
N         2.34588527770455    4.23586299219385    2.36717431796937
C         3.62061569149319    4.75002356898266    2.35726213366499
O         4.15499479214743    5.09718260410565    1.32961900619097
C         1.61318955086460    4.27928256438740    1.10027894543768
C         1.23458776559457    5.70421287352751    0.72536012675812
N         4.25830396065851    4.87745729241952    3.57764885571592
C         3.76599873575028    4.56871534923468    4.83275231964406
O         4.39223613526084    4.82379805047926    5.83530557332264
C         5.57565006660156    5.51633879894507    3.54968142083549
C         6.69450797683899    4.49069855929481    3.44999137765731
N         2.54278385437337    3.94893102360368    4.89132373397196
C         1.99116873475669    3.71344403825467    6.22589334805939
C         1.44552531500429    4.99569793735769    6.83659937270399
O         2.31664526535919    1.83741343755910    3.39006343515632
C         3.68088370140800    1.60405336955834    3.27160234591409
C         4.26931900974895    1.58875888656421    2.01585050236198
C         5.61758030239834    1.30028060513537    1.89963838773530
C         6.37448916498406    1.03562255195354    3.02879740213477
C         5.78138757222605    1.05831616835486    4.27988094357529
C         4.43384261375614    1.34576358486760    4.40727336501265
H         2.23123100859520    3.83788912342747    0.31267553488077
H         0.70931503324473    3.66549073862178    1.24067842537587
H         0.66486020588927    6.16258107535296    1.52943327950493
H         2.13119238878311    6.29078328660721    0.54737148748978
H         0.63319509553973    5.69704900064112   -0.17949430537323
H         5.59312769170146    6.18147640286539    2.68540271469724
H         5.67286969558222    6.09384893021804    4.47019953262498
H         1.18691297019073    2.97072730573467    6.11017530446631
H         2.77980918055734    3.30105719582156    6.86167054105909
H         2.25338652651738    5.70699370086537    6.98318021129716
H         0.70166836623919    5.43521771568486    6.17679920224324
H         0.98774267392299    4.77919719138413    7.79799009355160
H         3.66579960078265    1.78970584047148    1.14384133976673
H         6.07577374930788    1.28635551344285    0.92254027373774
H         7.42658137920277    0.81516225901510    2.93391453273408
H         6.36720274566178    0.85393822438889    5.16305474668897
H         3.95545758653030    1.35900725537382    5.37485665156499
H         6.66368637989060    3.81635520827807    4.30215333789466
H         6.59340262037214    3.91089787282550    2.53604749294389
H         7.65339223737910    5.00106901998686    3.43962868235372
P        -2.78984856204405    3.31054482083062    3.97285509637019
N        -3.47079169721948    4.23594489631762    5.20561311475762
C        -4.74561075040978    4.74997833085172    5.21568431259109
O        -5.27990846892565    5.09702649181110    6.24340474474191
N        -5.38335821809400    4.87753035619370    3.99536178499445
C        -4.89112344686428    4.56885934574831    2.74019492188713
O        -5.51741756022743    4.82408268550333    1.73771607394771
N        -3.66792555683962    3.94906506093450    2.68149975440009
O        -3.44156424375313    1.83756477772089    4.18255978693148
C        -4.80581747410607    1.60417141372205    4.30120831508778
C        -5.39410215243056    1.58888695328949    5.55703770393840
C        -6.74233456878152    1.30029560414604    5.67342141981901
C        -7.49937500028981    1.03548421987320    4.54438573970740
C        -6.90643536539976    1.05812140594465    3.29322687672558
C        -5.55892509868276    1.34569737711143    3.16565629549501
H        -5.08065947424143    1.35887679893896    2.19801797506536
H        -7.49238166249331    0.85374543760260    2.41013529927613
H        -8.55147540523164    0.81510409854881    4.63942231361275
H        -7.20042772617570    1.28647260472223    6.65057004170131
H        -4.79049111991154    1.78986840540976    6.42897709599994
C        -3.11650602267009    3.71354131717746    1.34684383437782
C        -2.57059914529082    4.99575398005224    0.73630606920963
H        -3.37830862736795    5.70726057536794    0.58987175913447
H        -1.82654570430267    5.43498678844012    1.39610046886316
H        -2.11296366093886    4.77923908873434   -0.22514660531973
H        -2.31243660401027    2.97062983558986    1.46239309423591
H        -3.90530503290909    3.30141280991208    0.71108979826653
C        -6.70072880030757    5.51637528703361    4.02344206519355
C        -7.81956310847491    4.49069227413408    4.12298491572095
H        -7.78876155362000    3.81648321505045    3.27071498684660
H        -7.71844980496220    3.91074837416206    5.03683729620920
H        -8.77844955005585    5.00105530328579    4.13344157633213
H        -6.71822418802592    6.18138206840920    4.88782166826445
H        -6.79799296966882    6.09402379314489    3.10301384138803
C        -2.73802318386293    4.27931154593060    6.47246378773716
C        -2.35942936858289    5.70425276570948    6.84730424398392
H        -1.78970315704234    6.16262846975636    6.04320869323330
H        -3.25605429896011    6.29079211075033    7.02534391727174
H        -1.75803056130658    5.69706040834486    7.75215275457347
H        -3.35598073751196    3.83785350686713    7.26010418276117
H        -1.83412369882761    3.66557689347879    6.33195323708322

