42
CSD_code = WIVVUS | q = 0 | S = 0 | Stoichiometry = C18H16Cl5O2Re | MND = 9
Re       -2.04421493469003    0.84008839137817    5.29654432358717
Cl       -2.73341727049666   -0.74437166369687    7.08114354558233
O        -4.45012045073271    2.49212978358030    6.24857805590239
O        -3.69513075726397   -1.65609290289097    4.44537989102043
C        -3.58016924187622    1.89005541746630    5.81544079835146
C        -3.10244848830838   -0.74109503326141    4.79437249163366
C        -2.34047100328546    1.29528218952294    3.15080179993760
C        -1.99628743936345    0.31900019478208    2.21692993414360
H        -1.71194920410896   -0.67042430317033    2.54416162139810
C        -1.99977290365408    0.56196244802487    0.85190013611528
C        -2.36787511152527    1.80906427361566    0.35804340832361
C        -2.73322136667863    2.80168960909050    1.26368161926909
C        -2.71690487526519    2.53623277530742    2.63188248948501
C        -0.02390968950019    2.02288276283848    4.68945115473011
C         0.38831780883683    0.62787822459985    4.78753686583837
C         0.21643939173985    0.22379256548063    6.11136417446511
C        -0.31436637135199    1.35562851988978    6.86869535904776
C        -0.40171445247498    2.47050485489183    5.99897011791546
C         0.32970389714996    2.91668429629496    3.55051107556661
H         1.37251576400221    3.22393419846265    3.65650438920900
H        -0.28716835760949    3.81120455942646    3.54309457090542
H         0.22100940687328    2.41032666542489    2.59357384233299
C         1.06743214185901   -0.12461441628629    3.69012548383276
H         2.13131409519057    0.12118357809787    3.68210338045186
H         0.65443921712703    0.13981358500439    2.71839585331350
H         0.96920625575273   -1.19986788826750    3.82628790778240
C         0.62881074763524   -1.06215003315385    6.73923874511394
H         1.46786823239381   -0.88869950430265    7.41521511330182
H         0.93164795194300   -1.79052699530056    5.99049250261295
H        -0.18875977867321   -1.48338978836318    7.32605275085821
C        -0.42090901407622    1.36677586020835    8.35460639931747
H         0.57795644316778    1.34189090547691    8.79453724298978
H        -0.96470950003272    0.49009779658919    8.70763667277235
H        -0.93385454183325    2.25823993562748    8.70783081370966
C        -0.62132206468172    3.89892253625200    6.39250486096045
H         0.34160380405155    4.37757111751368    6.57956419302414
H        -1.22161268555559    3.97024252282082    7.29632576430436
H        -1.12939222770653    4.44868158409502    5.60391776561941
Cl       -1.53832660548324   -0.68735143178781   -0.23713457104470
Cl       -2.37279937667303    2.12533118500970   -1.32817583370184
Cl       -3.19038759900828    4.35033317632043    0.68266030808219
Cl       -3.15754984581286    3.81425844739545    3.69605298193287

