52
CSD_code = WIVZIL | q = 0 | S = 0 | Stoichiometry = C22H19MnN4O5S | MND = 6
Mn        9.78375267542290    2.51728830308502    3.06085957217718
S        10.00113168118009    1.11697429832462    0.16183016186396
O        10.19575357831341    3.34264758415114    5.11057554811591
H        10.02823649151177    2.68914976070652    5.79988844425890
H         9.50527687096240    4.01793508560397    5.17440455464264
O         7.70988166586925    3.10713454334542    3.75434084398607
H         7.18326054515859    2.48321133897849    4.26306949491418
H         7.32061504514659    3.04295606407556    2.81729623626943
O         6.86241669344596    2.65741197351403    1.36138017746837
O        10.40555475164724   -0.15996160327011    0.68114987373541
O        11.04740386720501    1.99367921551141   -0.28453873962106
N         9.80745551444837    0.70153277919619    3.67469650358748
N        11.48356871262383    2.16554093773521    2.66041176543198
N        10.19516203627387    4.20590636608103    2.28067462438394
N         9.00562589607987    1.89378919666062    1.24465448103714
C         8.79888705031401   -0.06140472583518    4.11529618301274
H         7.83349592422566    0.42494224783846    4.20329226064129
C         8.91579540027842   -1.39310154653252    4.44238296735773
H         8.05416712332936   -1.94381075493510    4.78667318851746
C        10.15891403571234   -2.01276775238503    4.31200841883385
H        10.28466885847712   -3.05540887377332    4.55923392556012
C        11.21173397634765   -1.26025755304924    3.83913332932234
H        12.18426932058877   -1.70291440113085    3.69758354218291
C        11.01974781897609    0.08175022774400    3.51597423331966
C        12.01739483136093    0.95229801133429    2.94385802027045
C        13.34398297205937    0.66061686704491    2.64794431140632
H        13.75239025946270   -0.31120431986732    2.87438508367557
C        14.12892058393767    1.63050598895377    2.04395085364519
H        15.15876122166568    1.42078507829871    1.79893571966568
C        13.57743855602472    2.86791049914611    1.74171619037983
H        14.17026858456069    3.62714850879214    1.25759633246906
C        12.24748338251118    3.10951938243523    2.05689531844944
C        11.47130989904744    4.30123592104811    1.80339780720746
C        11.92098109996382    5.43429927479905    1.12723425875404
H        12.93503322807699    5.46697204500482    0.76270994888099
C        11.06140972046721    6.49167643304775    0.91730485953895
H        11.38583637700855    7.37439105100802    0.38768465986142
C         9.75725964834280    6.38911303889297    1.40017027133596
H         9.04756589069495    7.18839649429343    1.25432288025287
C         9.38072218741206    5.24260313560857    2.06621848166900
H         8.37275928912449    5.14110659641258    2.44900450957761
C         7.79026733129378    2.08729304859758    0.75236363883089
C         7.60989984347491    1.53908257965097   -0.61629127719502
C         6.45252080675400    1.57914047969176   -1.38073461500701
H         5.56555627027647    2.05199265943467   -0.98825995126404
C         6.47709406600241    1.00200898569015   -2.64072921314371
H         5.58802574893854    1.02039171901310   -3.25392817990824
C         7.62917843581748    0.39934616680269   -3.12683913644990
H         7.62628759167327   -0.04487655275882   -4.11089578857885
C         8.78959203247484    0.36182337330657   -2.35972441885044
H         9.69259712638986   -0.10126796845134   -2.72465795204559
C         8.75338748162682    0.93556879113577   -1.11170420443046

