52
CSD_code = WIVZOR | q = 0 | S = 0 | Stoichiometry = C22H19CoN4O5S | MND = 6
Co        9.88533711426897    2.22943407647271    2.59507514955928
S         9.37768602317807    0.94985728859514    0.22656971319404
O        10.23534403120789    3.92425290569779    4.87209100492612
H        10.26335885223975    3.22475259076031    5.52740573883853
H         9.31362076554677    3.98805115598395    4.58992766524536
O         7.80583778798639    3.00274228064233    3.80031315032410
H         7.48065034022429    2.26300480390026    4.31693755384245
H         7.22641553656222    3.03181762805580    2.99775973134675
O         6.42702561190053    2.74732391995610    1.51107211637058
O         9.62380807853527   -0.40375080357712    0.64891577636579
O        10.53677427403267    1.73272094523563   -0.11880022684317
N         9.92560846609602    0.53919933785204    3.38268445523861
N        11.61157406360994    2.21327575657467    2.90056628554300
N        10.21759668236355    3.92701913971459    1.88510663529102
N         8.45626278078754    1.75525505607655    1.32214735785378
C         8.90637033408623   -0.29514513167712    3.57886416841014
H         7.92378026024265    0.07767348677895    3.32448602060235
C         9.06062449345682   -1.58046817209909    4.05607340707231
H         8.19868492824079   -2.21467555051547    4.18833648400698
C        10.34057033610385   -2.04585510367285    4.34339771289025
H        10.49297371375541   -3.05055056983367    4.70699432064935
C        11.40889199330275   -1.19759753817648    4.14158914005503
H        12.41799607360147   -1.52101320197975    4.34200058960355
C        11.17928785009080    0.08888391352912    3.65800858640115
C        12.18871532068627    1.07619274712421    3.34817636375047
C        13.57113395850766    0.95253005032531    3.40759821715543
H        14.02491252999699    0.04591961504366    3.77501945030668
C        14.35883278020923    2.00771390587222    2.97030265213255
H        15.43456168746182    1.93547463211628    3.01333645826633
C        13.75527823646916    3.14228101207550    2.44270370997561
H        14.35622065978965    3.94918569802635    2.05528190709220
C        12.37007437188222    3.21474138835376    2.40706940692009
C        11.53283036498964    4.25468032637192    1.85078777955373
C        11.97649270526700    5.46476395635393    1.32284953790306
H        13.03104884798170    5.68965447929031    1.30930809911357
C        11.05506001639750    6.36378516835894    0.82632159587846
H        11.37264333306708    7.30741840072348    0.40891753503641
C         9.70676128198418    6.02841960653515    0.88168924285814
H         8.95177388898201    6.70443880242769    0.51290083500570
C         9.33935918817381    4.80770064748967    1.41583067255366
H         8.29629086784068    4.53083614743788    1.46856511048407
C         7.26616410998410    2.10719373209752    0.86244360275298
C         7.03922054278110    1.64257689899585   -0.53848109412002
C         5.89187559986768    1.81971076725445   -1.29503677494606
H         5.04259706011981    2.33337267467381   -0.87124092457890
C         5.87376314093704    1.32143236901942   -2.58908486134832
H         4.99004974860323    1.44595401276539   -3.19752363065425
C         6.97687378087371    0.66295676102063   -3.11317063387158
H         6.94239649060771    0.28197033244741   -4.12299387175394
C         8.12758013029142    0.48627468842912   -2.35207963085908
H         8.99113571459877   -0.02532436162675   -2.74715444311157
C         8.13657325022270    0.98593732669826   -1.07135884828400

