51
CSD_code = WIWBEK | q = 0 | S = 0 | Stoichiometry = C20H20FeN2O8 | MND = 6
Fe        6.13398166752820    8.54214060829372    9.25912168911414
C         5.78244772965776    6.18408846814184    7.83671308825810
H         5.57634584304702    5.86806422153947    8.85084491767303
C         5.62286151231019    5.28710150559177    6.78025132441593
H         5.32814493181594    4.27085979472631    6.98704720242083
C         5.83004746483550    5.72498948738740    5.49646956837452
H         5.70192548918421    5.07084239506091    4.64844932937676
C         6.21619081448870    7.06325156138494    5.28596075185036
C         6.38513498292385    7.90270470802750    6.42512907247806
C         6.79764529059382    9.23717011217910    6.22877422341047
H         6.97212957503148    9.85890926964491    7.09585827353790
C         6.98649036216589    9.73016513048651    4.96511470019511
H         7.27427761642362   10.75687020621220    4.79418082819355
C         6.80577946672117    8.90571515232781    3.84572960935483
C         6.44416071520717    7.59583898915305    4.00104104507538
H         6.33634839919443    6.96817665002288    3.12926165185730
C         6.98714717493401    9.52673443504112    2.40073121038876
N         6.14478809113128    7.44816919595117    7.68895202935535
O         6.85023402246076   10.74546880179996    2.39915808082621
O         7.21751852283505    8.68900919394326    1.53904268726486
O         8.37410799949101    9.32512039495172    8.89839581467820
H         8.78584918018525    8.93246638407699    8.12405829678870
H         8.87171232594745    9.01633413050069    9.66015827744914
O         7.66114136260363    6.98134011125226   10.36576263454263
H         7.49837220378773    6.96157309547314   11.31504085814452
H         7.66258711741935    6.07014054136219   10.06280356200288
C         6.48462369841361   10.89972891455159   10.68288817581362
H         6.69118329621169   11.21603654964190    9.66895071436005
C         6.64330984538987   11.79645302418639   11.73969636949271
H         6.93787200596068   12.81283902198623   11.53339452943271
C         6.43531804127565   11.35816983123875   13.02321672545989
H         6.56252530445493   12.01221255949628   13.87146191944364
C         6.04962751683641   10.01969783603421   13.23312440049944
C         5.88184986603059    9.18045401240833   12.09361431761593
C         5.47007088978600    7.84567219409748   12.28942443898397
H         5.29656291065757    7.22395777235899   11.42211494362379
C         5.28072397074727    7.35229444452419   13.55284228739139
H         4.99336651095083    6.32541075521471   13.72344741844645
C         5.46039743027733    8.17654545553832   14.67258126239850
C         5.82132038429028    9.48665108873740   14.51780275677752
H         5.92850036034078   10.11412588671288   15.38979589789398
C         5.27923933834234    7.55479215745528   16.11733164782837
N         6.12260199128437    9.63551879628043   10.83007033101890
O         5.41567623366352    6.33598083420881   16.11839605950376
O         5.04911963225711    8.39224221874206   16.97937521295841
O         3.89369460390315    7.76031811183996    9.62098991575289
H         3.48352504848308    8.15274024407750   10.39633816757746
H         3.39486297161459    8.06947678268112    8.86027545995700
O         4.60717794911451   10.10220426795757    8.15139286551364
H         4.76870508500514   10.11827914538319    7.20178406576333
H         4.60887525278540   11.01455355011970    8.45093938946226

