67
CSD_code = WIWCIP | q = 0 | S = 0 | Stoichiometry = C21H39N3Si3Zn | MND = 3
Zn        1.52425670407578    3.15672664228215    3.06074315868619
Si        3.18466035117817    4.90634842920328    5.19055234656951
Si        0.15781013115471    0.58430943901512    3.95468299671773
Si        2.71707265838097    0.42682162429007    2.25940460214095
N         0.48815601942077    4.25356899579268    1.70899073114443
N         2.08365937968763    4.81550029369818    3.84909544043803
N         1.46573272680903    1.28471407693483    3.07658910490319
C        -0.27146368625365    3.92876779219411    0.68600703942434
H        -0.37388482970975    2.87182028210257    0.48262784806262
C        -0.91440041046125    4.88938276135109   -0.10185175848654
H        -1.52800961355899    4.57760656205184   -0.93234896889667
C        -0.74576965310358    6.21361220543509    0.20481055895572
H        -1.22526002262297    6.98617742926923   -0.37942140603743
C         0.06363686871618    6.59059277231733    1.29702906344837
C         0.27966682563094    7.92499852628862    1.66640748711835
H        -0.18767103668285    8.71576760355496    1.10047729610022
C         1.08684453893280    8.19673424642925    2.74632041066304
H         1.25915415501820    9.22296959767698    3.03797051849889
C         1.69407900826505    7.18618933775880    3.47915115993286
H         2.31961441207921    7.44551683962531    4.31417973788087
C         1.52435521385115    5.83585358577048    3.17171983716685
C         0.67914318156823    5.54311484689854    2.04278044163902
C         2.70544647267108    6.16872342402810    6.54899412285527
H         1.63277493118810    6.33242092022434    6.56684808629257
H         3.18531471433144    7.13300319487460    6.41721501165872
H         2.99706519089543    5.79506689625153    7.52520656161580
C         3.07766625271724    3.17126625374947    5.97206749992333
H         2.22006951920867    3.09878662137918    6.63252807699641
H         3.95795164030845    2.94243246011125    6.56258341638304
H         2.97307968107012    2.40127294321500    5.21136008706840
C         4.98604459793558    5.22487158603758    4.55062441807632
C         5.07441815563160    6.52599966157865    3.75154356989081
H         6.08388312890236    6.66680774557632    3.36432047308684
H         4.83298353797858    7.38426204804434    4.37464347108863
H         4.38550611889198    6.50906511917169    2.91015644494616
C         5.96341254618030    5.30635331113439    5.72414262941287
H         6.97838222321467    5.47234072335143    5.36344597624144
H         5.95555090553000    4.38401144054297    6.29913720576957
H         5.70202515811546    6.12444236537256    6.39062447883414
C         5.40833762191746    4.07006166484564    3.64028461572557
H         6.40960984290021    4.24036211466814    3.24417386578757
H         4.72031887642593    3.97237213471012    2.80209473295495
H         5.41344327070818    3.13049284027284    4.18629719063271
C        -0.63230344000724    2.01720771031560    4.94292156804268
H        -1.63566101861634    1.77663112919191    5.27817266192659
H        -0.69987105897264    2.91673389394078    4.32786122375883
H        -0.04365494464172    2.26097396839189    5.82071115341972
C        -1.18880894798512   -0.13911548513632    2.80363827748401
H        -2.02766271622785   -0.52212880105946    3.37639239372787
H        -0.79632276268782   -0.95682928407290    2.21026110581528
H        -1.57312105764112    0.61071893457959    2.11880387370822
C         0.73256420296195   -0.77494202862764    5.16243761500170
H        -0.09722397053946   -1.16044814294216    5.74565432686241
H         1.48046999757377   -0.40237003343740    5.85435367551754
H         1.16977030803130   -1.60624525679355    4.62069327848045
C         2.09392805281335   -1.14933875955905    1.38768756993202
H         1.72315252252781   -1.86606559454130    2.11104040744742
H         2.89434938037561   -1.62582533048281    0.83131120143178
H         1.28980181126654   -0.93436261005281    0.69294886561389
C         3.39878517427815    1.63211973007248    0.93879461046743
H         3.29640142850926    2.66560242397767    1.27906102645063
H         2.86075992954700    1.54187478735480    0.00055721965314
H         4.44913091630152    1.45593555503747    0.73334538735604
C         4.14133358734756   -0.06764499161850    3.43825316090284
H         4.63236935122031    0.80388091748969    3.85974134714083
H         4.89625657562835   -0.65217885810709    2.92143510207721
H         3.76918936976693   -0.66579323306479    4.26311336643228

