37
CSD_code = WIWDAI | q = 0 | S = 0 | Stoichiometry = C18H14N4Ni | MND = 4
Ni       -0.14837153800591    0.00024773131262   10.45590964469297
N         1.27416134773278   -0.05075005603569    9.12652011108843
N         0.87914780084914    1.32448220446486   11.25936637721595
H         0.74751211831874    1.88517827767482   12.09782232603653
C         1.43109013674445   -0.78169100793219    8.03481226778839
H         0.66327848064960   -1.49694978558339    7.77895068361501
C         2.54891360778442   -0.66563124459101    7.19976871407339
H         2.61194714290924   -1.29417641580232    6.32469806571058
C         3.53964175670188    0.23248486099762    7.49713810919175
H         4.41020390432872    0.33662320769024    6.86574533017409
C         3.41462199131160    1.03307845409195    8.64962548574070
C         4.35290023735331    1.98926717602465    9.06737788155791
H         5.24563759849413    2.14289032667178    8.48135486421674
C         4.12559483455630    2.71936172156974   10.21503447547862
H         4.85634793473102    3.45278646572260   10.52570894146073
C         2.98706201235466    2.54591431010464   10.98995110229622
H         2.84358038857791    3.13740817271824   11.88298377998130
C         2.02087758803550    1.60575491879019   10.62008749374459
C         2.24574514812655    0.84312028252054    9.43249536526488
N        -1.57042922869321    0.05054083439597   11.78577294629198
N        -1.17568691992723   -1.32414288598019    9.65253107538572
H        -1.04418761256702   -1.88457594743359    8.81388037617399
C        -1.72701346540157    0.78095303454480   12.87787901965555
H        -0.95902539010862    1.49593677777489   13.13396288441147
C        -2.84474821203191    0.66473419184182   13.71301402332078
H        -2.90750694945898    1.29287676833164   14.58838731945139
C        -3.83572208335860   -0.23299593434247   13.41532062250796
H        -4.70623701497258   -0.33721739164853   14.04675559543020
C        -3.71099196494292   -1.03313283130186   12.26248552730129
C        -4.64947378719633   -1.98900358598962   11.84447660205059
H        -5.54216460368878   -2.14271013263395   12.43055004889604
C        -4.42239973580909   -2.71870154479930   10.69652347877297
H        -5.15333928541972   -3.45185175970433   10.38562826436226
C        -3.28385932408841   -2.54522113054359    9.92161554892620
H        -3.14056490522105   -3.13644004322330    9.02837240164043
C        -2.31746884363424   -1.60537775457387   10.29173029155781
C        -2.54217316503407   -0.84307026512441   11.47956295453476

