67
CSD_code = WIWFUE | q = 0 | S = 0 | Stoichiometry = C21H33BClFN6NiS3 | MND = 4
Ni        5.69849126321584    3.29032667633211    4.49648709408623
Cl        5.69954904791300    3.29083546401566    2.50140169507567
S         4.07021528032506    1.60079608531557    4.97890468154530
F         5.69674673808401    3.29126923002984    8.85350009528739
N         4.22854619529991    3.41600564192704    7.00444366315360
N         2.33655120485050    3.50335497544165    5.87628275021967
B         5.69874982506539    3.29018673682490    7.46944636634743
C         3.55183127221371    2.90339919465469    5.94503461613386
C         3.41809940915702    4.34680066884387    7.59695141234640
H         3.74516749700587    4.89330031635807    8.45673374647502
C         2.25836446992398    4.40153559781945    6.90756623839580
H         1.40640408864062    5.01971486401558    7.08347628445433
C         1.34558135519549    3.33604424842159    4.80355555254920
C         0.17100101449341    4.28791807311989    5.03389457642356
H         0.49728151383167    5.32505689150285    5.01906915172593
H        -0.33656862008124    4.07565717228104    5.97257193359613
H        -0.54550390669624    4.15165035854106    4.22845341138459
C         2.00943502646740    3.68680280168104    3.46972352367815
H         2.42652520630531    4.69154561637046    3.50915907092352
H         1.27724038954741    3.64177928886007    2.66947214108126
H         2.81513122251989    2.99768400125323    3.22933292179850
C         0.82577987564846    1.89630516437210    4.81726048221408
H         0.39323059046838    1.65846624445321    5.78744089619522
H         1.62669622022075    1.19415832311359    4.60909007758471
H         0.05974287747034    1.78081840915432    4.05604834938304
S         5.05221434282301    5.54643613204190    4.97853488955313
S         7.97560182216119    2.72335960951164    4.98082589653142
N         6.54351986660288    4.50068318811072    7.00596534094788
N         6.32537518850409    1.95314934016255    7.00795776212656
N         7.19395351160329    0.27131932455897    5.87751726260342
N         7.56569212401419    6.09472678923943    5.87697847025328
C         6.43847540530146    5.34249714837518    5.94581754633204
C         7.10607923427928    1.62367742155748    5.94702989109449
C         5.92441971895760    0.78547901602046    7.59973813858342
C         7.75503207067414    4.73704653036508    7.59817448059894
H         5.28874727579779    0.79505190847057    8.46050573389714
H         8.06455349452895    4.18104086760736    8.45841654450299
C         6.45539709286980   -0.24596213766238    6.90874373288506
C         8.38265839357445    5.71342918474570    6.90824149753249
H         6.34585469040755   -1.29303657403882    7.08401821859683
H         9.34410337904565    6.14208158997344    7.08393531086128
C         7.83425911385891   -0.50245832418170    4.80419128906692
C         7.91557070071686    7.03652168707280    4.80401951435405
C         7.59689250558177   -1.99567493949518    5.03348682369357
C         9.32725195147258    7.57787119993563    5.03354326575342
H         6.53555829376588   -2.23160056948242    5.01856031212198
H        10.06228391347216    6.77673516329989    5.01830845662479
H         8.03459847134000   -2.32998053875873    5.97176022697505
H         9.39771788404329    8.12362780290246    5.97213593110288
H         8.07300703046810   -2.54733924264396    4.22751322221652
H         9.56689696051235    8.26644416192521    4.22787659734536
C         7.19813621270058   -0.10173057261575    3.47093263194625
C         7.88634690643530    6.28587674992665    3.47039025662038
H         6.11937809892326   -0.24266192668081    3.51018988134695
H         8.54784821570902    5.42221444227491    3.50940866328797
H         7.60326990552044   -0.71283140099595    2.67032622697088
H         8.21295220589474    6.94243843245760    2.66990549989503
H         7.39239459370976    0.94072373494794    3.23133934689550
H         6.88644678322213    5.93280411734521    3.23077531404950
C         9.34109366078136   -0.23304907197106    4.81755376889292
C         6.92831300400130    8.20628342906316    4.81789131470976
H         9.76390472499129   -0.48887777190580    5.78730782961481
H         6.93880193599259    8.70002756677622    5.78789912977049
H         9.54895013656173    0.81144605073485    4.60935132760321
H         5.91978851252338    7.86346361597614    4.61011990440299
H         9.82361520339196   -0.83857593674128    4.05608329994372
H         7.21085640617833    8.92731075709777    4.05642851583121

