67
CSD_code = WIWGOZ | q = 0 | S = 0 | Stoichiometry = C21H33BCl2N6NiS3 | MND = 4
Ni        5.72887707064365    3.30754167313124   12.57408884408120
S         4.11888192689000    1.60114974740840   12.07981459109813
Cl        5.72920275976032    3.30763275177266   14.56840644792831
Cl        5.72954734641061    3.30755038988184    7.75329495395995
B         5.72868830300251    3.30702378909260    9.62047900873126
N         4.26412090337679    3.44198019133823   10.06745993928115
N         2.37546479737159    3.50006422019226   11.20868726325572
C         3.59163367965103    2.90613276387919   11.12351745717081
C         3.44642946602983    4.38661842644549    9.50338545629502
H         3.76056897619986    4.95902477681277    8.65572946569463
C         2.29076296830448    4.42150157495157   10.19930391347467
H         1.43699278302474    5.04187869747520   10.04068368764205
C         1.38852674344266    3.30971085500628   12.28237014010601
C         0.87981758713094    1.86635562576591   12.25314014722181
H         0.44544933744666    1.63724268623870   11.28176810249944
H         0.11722489570114    1.73660044189822   13.01541759749665
H         1.68573289301134    1.16658419988100   12.45029907663536
C         2.05407202844047    3.65046900543524   13.61806005094741
H         2.85792469172830    2.95771070585475   13.85463721652613
H         1.32140342788893    3.60313662619871   14.41782659634945
H         2.47362014235545    4.65453782436460   13.58431509798722
C         0.20525116808690    4.25412492276150   12.06661383663586
H        -0.29845474874022    4.05410542557811   11.12312903845703
H         0.52078988781290    5.29412647607614   12.10191015063000
H        -0.51145554021560    4.09554427768382   12.86788641204907
S         8.01148057421021    2.76543990101819   12.08015215210436
S         5.05502888590717    5.55469084115280   12.07945864342960
N         6.34394664072383    1.97129487091687   10.06810506467422
N         6.57770732415484    4.50761940624781   10.06849767525562
N         7.57174882593602    6.11469519046248   11.20924597615415
N         7.23801745898720    0.30651963311857   11.20890111225325
C         7.14442467951468    1.65668679720223   11.12394839980510
C         6.44932077833014    5.35838325086013   11.12401126786273
C         7.80463059737952    4.74359069027035    9.50444710700941
C         5.93458264312281    0.79092766537916    9.50390024670094
H         8.14341495238373    4.18539561947888    8.65678735555922
H         5.28181223530211    0.77687300433954    8.65622801425161
C         8.41234158488384    5.72732954466320   10.20009071344573
C         6.48225784604985   -0.22744157923385   10.19957905872752
H         9.37657116046784    6.15644835269307   10.04171765865132
H         6.37165325963300   -1.27698844306519   10.04096668537802
C         7.89978274499394    7.06515044626537   12.28253037819857
C         7.89696155880016   -0.45298528947691   12.28212702432426
C         6.90376055368686    8.22699357375080   12.25226834381830
C         9.40120117755007   -0.17154388247955   12.25195342973341
H         6.92288944345503    8.71711819064763   11.28056429503965
H         9.81623580133428   -0.43306346104635   11.28031787981332
H         7.17225056452224    8.95277414122805   13.01428232088722
H         9.89548483926618   -0.76698063604146   13.01394036050051
H         5.89471728255910    7.87875043861342   12.44913701858195
H         9.60409648451205    0.87637613735663   12.44895489663273
C         7.86181307178272    6.31901135493615   13.61851247570265
C         7.26983560807944   -0.04692233217352   13.61812670331539
H         6.85996692887860    5.96904606187454   13.85483476832675
H         7.46811562891831    0.99563170294731   13.85438888728720
H         8.18683432276290    6.97731541399672   14.41832863903710
H         7.67734780196393   -0.65773766804966   14.41782084578111
H         8.52169773323855    5.45372861416542   13.58494449110708
H         6.19047752559964   -0.18539457347722   13.58476315821646
C         9.30913272778665    7.61822808456275   12.06704377557528
C         7.67089672473294   -1.94995151251669   12.06646876737270
H         9.38796552577596    8.15373050224313   11.12316764601093
H         8.09532936827805   -2.28593511780938   11.12262258971962
H        10.05240299978975    6.82535481641625   12.10331687485381
H         6.61251702220537   -2.19681708431340   12.10245979631871
H         9.52941515445704    8.31897425362948   12.86784875835129
H         8.16725846332545   -2.49136499587777   12.86731425208175

