89
CSD_code = WIWHES | q = 0 | S = 0 | Stoichiometry = C35H47FeN2O3P | MND = 7
Fe        1.98591696817132   11.88508071976374    4.85245602104945
P         4.00942767539338   12.82343296563905    5.00461878533204
C         2.61768102929516    9.77547077576260    4.85466846788160
C         3.26114142730622   10.20126609906025    3.59293196225968
C         3.26732332312527    8.98087304768960    5.89808504617978
C         3.93185348435701   14.46328764878917    5.86502059674308
H         3.29268674676753   15.09794871095448    5.24270121540544
H         3.38456765017132   14.29288136054210    6.79737953574034
C         5.26994143201469   11.90543981627038    5.98687521703489
H         5.39876068451609   10.93792134036218    5.49262979471634
H         6.21880924451265   12.44471187828503    5.92923804478412
C         0.96452595771221   13.25801260234059    4.47026604523312
C         4.42875198636110    8.25718071106021    5.63013838621156
H         4.86892031201172    8.30926901885184    4.64664861938814
C         1.45840117568834   12.15696081673791    6.49623689609495
C         4.83701270442908   11.70337280568716    7.43489456349593
H         3.84400138785112   11.24693172898039    7.44191068089325
H         4.76071941509529   12.66927569749650    7.93967562121000
C         3.25048607805653   10.76358286077151    0.60477631357552
H         3.68558215147980    9.82081027963915    0.89716977692057
C         2.43564077727231   11.44854781549517    1.50358556541674
C         2.72052231086907    8.91869029326227    7.18289799453208
H         1.83084767180205    9.49135974508868    7.40079818612762
C         3.30669101972426    8.13953894839616    8.15972929459843
H         2.87072451584798    8.09958319357865    9.14769709061831
C         2.18012493570252   10.88813108247749    2.83972169615771
C         4.42735936842621   14.32822065881757    2.66761111688118
H         4.55355794143159   15.28200174001636    3.18501403642712
H         3.35555797482443   14.15433571735423    2.54689660349467
C         5.25543852456769   15.16655157919928    6.15108554629951
H         5.86093198612147   14.56236308552990    6.82858174734769
H         5.81916213557647   15.29892239185431    5.22598942451120
C         1.90524330521200   12.68035715052378    1.11785671965522
H         1.29358452337823   13.22923290457628    1.82069760136196
C         5.01445340468956   13.19597581872709    3.50368828276635
H         6.03692266033291   13.42262784966180    3.81614746460859
H         5.04044923688950   12.27061614784399    2.91971678714912
C        -1.40400280535083    9.86164606753559    3.63723077615346
H        -1.61691870078481    8.82338833294321    3.34538338352418
H        -2.29989726656344   10.45868807680444    3.44475756193905
C         1.20421585407312    9.86406573402341    4.66264490058022
C         0.16412271845526    7.84126417920959    5.49686347925087
H        -0.11874446452101    7.38551886448111    4.53833273513445
H        -0.54956541794915    7.53152184340617    6.25998768430198
H         1.15064303028834    7.47761217311085    5.77409447168376
C         0.92694505397585   10.44754971223063    3.37171646507069
C         2.15026129514397   13.19362575976086   -0.14037066554705
H         1.72438282591168   14.14495787225112   -0.42507008853643
C         5.02408837186985   16.53632672891410    6.78828413112482
H         4.42044063084944   17.15053783335708    6.11612149822608
H         4.46041100278926   16.41195441746115    7.71565611250866
C         5.01208347398373    7.47906850386862    6.61375712724678
H         5.90930052448808    6.91947226754553    6.38993701471263
C         6.33802420826813   17.24945147933586    7.08409228483782
H         6.94603467490884   16.66202537936902    7.76871327818834
H         6.15276155997568   18.22022218311765    7.53721832361503
H         6.90506144536930   17.40135727362623    6.16809969186600
C        -1.07327192719726    9.91942560070911    5.13393192091136
H        -0.99273058148816   10.96945541940510    5.44029506410578
H        -1.86877297775385    9.44155402987126    5.70757202789677
C         4.45271880470579    7.41151615675532    7.87854568043065
H         4.90969938911250    6.80106705827643    8.64370451088611
C         3.50476141197976   11.28636619470221   -0.65076173265596
H         4.13819572568070   10.74314394473869   -1.33715864016553
C        -0.70064684776860   11.05195162309760    1.61533275927440
H         0.10844756265312   11.01743362467224    0.89114187407591
H        -0.96373893735124   12.09864028865486    1.80687568795205
H        -1.56668849792244   10.54434369901734    1.19109194404495
C         2.95063089169448   12.49634408587554   -1.03159591169685
H         3.14787937616429   12.90011873317546   -2.01374021547195
C         7.15693908942860   11.46285214798318    8.45500624622335
H         7.68280702419585   11.62617011984229    7.51773432160735
H         7.77673765924196   10.82506524479416    9.08084724086104
H         7.03793139039845   12.42100632811716    8.95765524581377
C         5.79983102781125   10.80994587176921    8.21672453490463
H         5.34643651457914   10.57177794087854    9.18153343359224
H         5.93516156143579    9.87137389258865    7.67725201733962
C         5.07352263456545   14.42581859875754    1.28593673653755
H         4.99383614582399   13.45982383380295    0.78478925579795
H         4.51658847350411   15.15310811287214    0.69049358668812
C         6.53667818818197   14.84955241447117    1.34595431889371
H         6.64133103589856   15.79084632418527    1.88260213121684
H         6.93135710634424   14.98449507680121    0.34166133444522
H         7.13936516467668   14.09597830680074    1.84594687163854
O         4.44262829810478   10.10889107466995    3.27000868277247
O         1.04986831363676   12.40519699216692    7.54326118332787
O         0.26945733725672   14.16549972388896    4.31374293390695
N         0.18960297232512    9.29088123354923    5.44960212222460
N        -0.31263447208594   10.36893461365149    2.82292591862787

