84
CSD_code = WIWJUH | q = 1 | S = 0 | Stoichiometry = C41H39N2PRh(1+) | MND = 7
Rh       -0.61353970116212    4.54214191752589   13.98734236093920
P        -2.65933445935086    4.89004390664286   15.05016346499223
N         0.25761880159330    3.92740952334364   15.65806407408753
C         1.12474262406084    4.57505972844136   12.73659330345966
H         1.92474847153846    3.87806972305881   12.94785654993224
N        -0.94158055245118    2.12289407931299   14.14093153133769
C         0.97516923188884    5.84920134785266   13.28039363565671
H         1.61066237095269    6.31929770850046   14.01877696620042
C         0.13481422782135    6.64500734737796   12.28587616982537
H         0.14145248646606    7.72577595892334   12.39247128773530
C        -1.21314643770719    5.94310618489270   12.44071587016942
H        -2.14425942916868    6.47761471497224   12.57673114663707
C        -1.06335088017202    4.68188198783826   11.89050965375090
H        -1.85051583283637    4.03655736548760   11.52479530009692
C         0.38075057234846    4.60238303851000   11.39896768525699
H         0.61653277448861    3.81559419264868   10.68873584650702
C         0.62000724883754    6.05324212078779   10.95442835926175
H         0.00315925224796    6.34751293541724   10.10621404169733
H         1.66688423692172    6.27102849782647   10.74623630383386
C         0.19333931669528    2.70540226961738   16.09143906278901
C        -0.57474657446199    1.73929778840255   15.31406680491312
C         0.85914995701444    2.25606828056906   17.35318445259933
H         1.23789583591049    3.10301654443686   17.91972683355790
H         1.69400118396051    1.59156979545568   17.13148072613863
H         0.15042887356325    1.70782646855869   17.97017888264975
C        -0.79844558339719    0.37139887248706   15.87843306992843
H        -1.17156182184864   -0.30409057774419   15.11269491709860
H        -1.52560372379384    0.41386834161037   16.68951207444799
H         0.12929498189875   -0.03218071400205   16.27711775801889
C         1.12954633651071    4.85159781098118   16.27739296515426
C         0.64172012097287    5.96291898247916   16.95927740717701
H        -0.42335214398959    6.10701703364023   17.05788434373750
C         1.52023679428927    6.87784139560720   17.51035113887106
H         1.12912971036791    7.73297750429715   18.03956883563580
C         2.88823730424675    6.69996884153481   17.38561027999873
H         3.56956490010088    7.41912169133886   17.81167405517825
C         3.37876497958883    5.59224922494998   16.71269518435652
H         4.44303138259060    5.44478158223569   16.61392183545098
C         2.50955581676543    4.66570696388982   16.16887631456878
H         2.88795153974540    3.80406125515889   15.63829230420660
C        -1.68445742199009    1.34157953261807   13.26223229647856
C        -1.22881395412760    1.22851467356484   11.94676183561457
H        -0.28764999506778    1.68667402298747   11.68335276435555
C        -1.95715767992168    0.51379471833996   11.01756431669561
H        -1.58839101214710    0.41700736154939   10.00780682450919
C        -3.16276561323100   -0.07156383133134   11.37492647743779
H        -3.73661794089543   -0.61850590495528   10.64338780392991
C        -3.62953313019134    0.05148385972640   12.67338273280330
H        -4.57057177944861   -0.39598446623291   12.95516787146284
C        -2.89351452019891    0.73970201045615   13.62015042326480
H        -3.27024353271163    0.85752895771253   14.62529367058809
C        -3.18005691334091    3.65656698474418   16.29324498687639
C        -2.43996748049912    3.57178462819282   17.47195742324515
H        -1.63922573947116    4.27522840652720   17.65262131050161
C        -2.74404330122751    2.61821283556561   18.42525077772142
H        -2.17187043610434    2.57013587629506   19.34017863908930
C        -3.78747249177241    1.73092980033788   18.21094245505761
H        -4.02429371704292    0.98380061059961   18.95296740962842
C        -4.53542060142565    1.81752261319775   17.04842798487466
H        -5.36098715751241    1.14063792814941   16.88626397120024
C        -4.23472591398340    2.77275959269101   16.09161098097426
H        -4.83316147853434    2.84022337563082   15.19475340187397
C        -2.82603926947001    6.44400923900714   15.98891971253251
C        -3.77792142288740    6.58815109654815   16.99478370538874
H        -4.41986064501885    5.75761357729352   17.25372009627462
C        -3.90064821580687    7.79566920738217   17.65845728771771
H        -4.63889858147257    7.90431956666168   18.43850950613168
C        -3.08285497782492    8.86350769880627   17.32287235326796
H        -3.18410127714182    9.80316258655163   17.84373337152625
C        -2.13511862459376    8.72418550408578   16.32166208011613
H        -1.49651405644188    9.55458678366647   16.06080430535046
C        -2.00543258799898    7.51795356549562   15.65716068026726
H        -1.25510303366575    7.39251161307464   14.88537062484053
C        -4.09752222139849    4.96626398359829   13.92873359572954
C        -4.24679434784981    3.92646299053391   13.01244993205456
H        -3.52754088453340    3.11895685597971   13.00637390951179
C        -5.30739332565311    3.91868802637777   12.12700210308539
H        -5.41746159676282    3.10247003259473   11.42859178925190
C        -6.22302808934250    4.95937276657772   12.13731714379715
H        -7.05148068839005    4.95739165315770   11.44604291796366
C        -6.07074468781665    6.00342383180316   13.03397666713744
H        -6.77965460489621    6.81737017736263   13.04066536630169
C        -5.01290617780234    6.01253306231037   13.92753479418431
H        -4.90449306543846    6.83442095989828   14.61988890154204

