85
CSD_code = WIWKUL | q = 0 | S = 0 | Stoichiometry = C39H42N2OZr | MND = 5
Zr        9.73525254168343    6.90687528913237    9.32262032266996
O         9.07745552309793    5.16078395353592    9.77342904170058
N        11.11986285434307    5.99864230921166    7.99530984831557
N        10.25879995128866    8.91518346201389    8.71251409912382
C         9.85277138369564    4.12806085642296   10.05299842076980
C         9.49190082864005    3.17126397066206   11.03707772948343
C        10.36347699512274    2.13321352944579   11.31450219386308
H        10.08785363441414    1.42583622040486   12.07437820501608
C        11.57532625549814    1.95725101681486   10.65219605087412
C        11.87132950914632    2.84238649178370    9.63214049551820
H        12.78482343399457    2.72818285934644    9.06945944783716
C        11.03321739458475    3.90650111994852    9.30247081809239
C        11.33745870066338    4.66397731935164    8.07268007524178
C        11.83478196294671    3.94130140074282    6.99536306983828
H        11.93996436423770    2.87185227977758    7.06374570935095
C        12.16363411435796    4.60465962287288    5.81365893742669
H        12.55128855687630    4.05119638453433    4.97089268653657
C        11.98642947719217    5.95554902478157    5.74409348355969
H        12.24201625599086    6.50059708375937    4.84879037645027
C        11.43871195372899    6.67317755462871    6.84598940232451
C        11.30221125070261    8.06346752583812    6.67766332070898
H        11.66985286816247    8.40527883439239    5.71782433668580
C        10.82012045470144    9.10654202094684    7.47809577164615
C        10.92523201365406   10.43353547614818    6.95594750209652
H        11.37725809051830   10.56460128286457    5.98462845564759
C        10.47085524849329   11.50614303060630    7.66042145428288
H        10.55831557332756   12.50805906620683    7.26686568238483
C         9.87373914425346   11.28451138720799    8.91129548829480
H         9.48127936480301   12.09955195728990    9.49590826256838
C         9.78421178014971    9.99319530076404    9.36503009000371
H         9.30469051038229    9.79693686984221   10.32128216269138
C         8.13213920721270    3.26791492532624   11.72661007944385
C         7.03719570916505    3.23200853023773   10.64879387851442
H         7.16267361120450    4.04952796855573    9.94348689931254
H         6.05347092846046    3.31386573067214   11.10715085030570
H         7.08661821794091    2.29375487269549   10.09948120761429
C         7.86259281556752    2.10933246113566   12.69374984942841
H         7.88251637229955    1.15172231660285   12.17899485072273
H         6.87258058588883    2.23489009586846   13.12818842747421
H         8.58346194821586    2.09409802557831   13.50791857972430
C         8.03703769634419    4.57310132516915   12.52791537192477
H         8.72335559875675    4.54299933496552   13.37239628389628
H         7.02726054984871    4.70186502459263   12.91438560692947
H         8.28744692657552    5.42643294242755   11.89880211234028
C        12.50429851267237    0.78376441594419   10.93485726579628
C        12.09187114925355   -0.01036645380021   12.17797153852731
H        12.04895115891877    0.63302395853607   13.05373827753932
H        12.82474898833232   -0.79204118453013   12.36852260337313
H        11.12555243666086   -0.48871898266437   12.03911669729188
C        12.45994400731018   -0.15853649392847    9.72219146409379
H        11.43947003341844   -0.48773701218962    9.53810272506777
H        13.07985625891238   -1.03495063079584    9.90050237694406
H        12.82264996548048    0.34211870655354    8.82849597138989
C        13.94414688896648    1.26867525465480   11.14644404203364
H        14.30464276715309    1.83592653834987   10.29393450995424
H        14.60545823132374    0.41629575111754   11.29076340946708
H        14.00566312317802    1.90159186427423   12.02785726154467
C         7.99944926433506    7.06466370614350    7.84216981396121
H         8.11497058150508    7.43574750704105    6.81855245688893
H         7.56287083081593    6.05748123469574    7.86515135319797
C         7.37050691037326    8.00782402965828    8.74348759627719
C         7.03813266247021    7.62435951447412   10.07060128250101
H         7.09720071855935    6.57044890986649   10.34362900054784
C         6.52932974381741    8.54141369997313   10.97149365987853
H         6.27145360943761    8.22147554099454   11.97245021496348
C         6.32255959609181    9.86360335012206   10.59948410101641
H         5.92055997855762   10.57365615810832   11.30578281422848
C         6.61790067761571   10.25413289771779    9.30110404961134
H         6.43433954238816   11.27405528166798    8.99359299101305
C         7.13638695901786    9.35369545824238    8.39307689172911
H         7.35234207049696    9.67634307571016    7.38165798084523
C        10.24140359157202    7.48770452464669   11.47548479804333
H        10.48560753696181    8.55598282407583   11.53725100796750
H         9.64820823138237    7.19844936781014   12.35069936864434
C        11.45710589114295    6.68478821624699   11.34020728498623
C        11.67401785075746    5.50782574650508   12.07992815444202
H        10.93656509880757    5.20289753340500   12.80993474969884
C        12.82412343023485    4.76270538592124   11.92628426512084
H        12.96696779546810    3.88188607295316   12.53383398520237
C        13.79810856274922    5.14342390726624   11.01602906189329
H        14.69686626089702    4.55759857166495   10.89950648639135
C        13.61425409317542    6.30067548660308   10.27346732510239
H        14.37976367303729    6.61980662684748    9.57844604556391
C        12.47503066167687    7.06788575860259   10.43217279030993
H        12.39284849705690    8.01919582708640    9.90117538818577

