66
CSD_code = WIWLAS | q = 0 | S = 0 | Stoichiometry = C25H33Cl3N2O2Ti | MND = 6
Ti        2.24017302270156    5.44292377186298    8.81955879375550
Cl        1.16874794740103    5.73109369135505   10.83115135173343
Cl        1.08536625109639    3.60969739096428    8.38077292161177
Cl        3.45121272862084    5.26535164201356    6.86090772731901
N         4.90887900384129    5.29003503726418   10.29719220415953
O         3.02030343290280    6.96288330352860    9.08791028809082
C         3.90900292661830    4.55248579848676    9.79079380772302
N         4.23565262017910    3.27194308897726    9.86880159839642
O         0.74964909963638    6.45793911730767    7.83214730998881
C         6.01246732350730    4.46151499599132   10.80013258790566
H         6.12345254342542    4.60531864214374   11.87901621172793
H         6.94368401414104    4.74007497556542   10.30051475352299
C         5.55927444110324    3.04811604863916   10.45302617533599
H         6.20789693860746    2.56075292324454    9.71994032616976
H         5.47327994500848    2.39766576057577   11.32724925503820
C         4.98042311734118    6.68798797246757   10.39224722316045
C         4.00028443948080    7.49940798836629    9.76449799654484
C         4.10900089982650    8.89112442301179    9.87462623847250
H         3.35286333623648    9.49173596902218    9.39018290578756
C         5.14170817035189    9.47669119157979   10.57612688629207
H         5.20194513378033   10.55178570933020   10.64761597607679
C         6.09769483230238    8.68113088975223   11.18314762911628
H         6.91130083292262    9.12788937438460   11.73275049992815
C         6.01625641927359    7.30260154021205   11.08845208338510
H         6.77561688287086    6.71050829393597   11.57339587111051
C         3.44106995246597    2.11347476406029    9.61458907220539
C         3.63041151735958    1.40406892356820    8.42601218965615
C         2.95764571401127    0.19993251535540    8.26645386616120
H         3.08601052070720   -0.36401776599682    7.35616275018719
C         2.12213631410382   -0.28212151130851    9.25366474799361
H         1.60963052228093   -1.22255451770444    9.11542130061362
C         1.92502123534813    0.44623470307103   10.40987492579250
H         1.25290183911604    0.07090360238280   11.16516526115022
C         2.57333441667950    1.65713160186536   10.61304462572082
C         4.50824456215463    1.92775295577752    7.31498929655771
H         4.84342343089722    2.93942962841245    7.56646710588249
C         5.73298338081490    1.03043573670852    7.11556101548383
H         6.30803271561072    0.93386680495414    8.03561908540399
H         6.37794745478341    1.44829173297479    6.34621381681854
H         5.42984815241991    0.03356639792998    6.80446108984651
C         3.70116209098835    2.03664605828757    6.01927943869682
H         3.45452452380406    1.05571183127270    5.62096033840719
H         4.27281225206738    2.58435805612429    5.27479716677769
H         2.77995436856213    2.58257638568247    6.20926807904736
C         2.31365665301631    2.44134491791767   11.87818689173343
H         2.76158398121788    3.43854233527320   11.78830093278700
C         0.81029377237173    2.64628636303404   12.07823178440847
H         0.31438233071407    1.71748873512690   12.34867855730222
H         0.36678354529176    3.02921667055322   11.16180616400509
H         0.63959071181658    3.37502713498882   12.86635008662113
C         2.92582643876696    1.73248322856109   13.09030115445788
H         2.48022524042801    0.74909705945755   13.22128078391238
H         2.74553588156732    2.31483461614412   13.99081705002211
H         4.00083145304128    1.60211600940407   12.97333950717214
C         0.27787891796823    7.74679265834741    8.22921641641344
H         1.04456346265515    8.49836056748589    7.98240042333705
H         0.11675789244257    7.72897894742733    9.31361267051376
C        -0.99270087099451    7.97311500666826    7.41852628176081
H        -1.83124616072208    7.45189163540427    7.88235660827679
H        -1.23868599274730    9.02726717592015    7.31680266955801
C        -0.61901254524669    7.30888583458946    6.09506780991023
H        -1.48372936358445    7.02370121626757    5.50114000808349
H         0.01248539947037    7.97321799602547    5.50335704004654
C         0.17688857717849    6.09315260260379    6.56637300350300
H         0.98911721389631    5.81420592549617    5.88283354661947
H        -0.47095780590572    5.22024591989437    6.72975681479459

