121
CSD_code = WIWMIZ | q = 0 | S = 0 | Stoichiometry = C58H54HfN4O4 | MND = 8
Hf        1.24442140972623    2.74488456018098    6.94626720386096
N        -0.07169061892147    3.58406744544068    5.32328697868043
N         2.68023089961235    4.07504269834285    5.86395294929311
N         2.14084828626717    3.92725205637898    8.65870493047486
N        -0.58264030859598    3.31854190223805    8.10973323957449
C        -1.41713108287758    3.35889653524236    5.24758202637394
C        -1.85142133217720    3.39408880589140    3.87786135146217
H        -2.85972771498485    3.24627238388999    3.54371903466514
C        -0.75012883164047    3.63037633398110    3.12594078799883
H        -0.68653918942211    3.73143556305970    2.05997661519471
C         0.35756704034334    3.73122474413681    4.03426922100950
C         1.67387105368109    3.96050982990688    3.62861165945671
C         2.75020819611802    4.12041684370121    4.50146817812990
C         4.09998373108716    4.37830719753939    4.07991906718149
H         4.42593042396880    4.45502029657673    3.06091929199839
C         4.84352231531942    4.49419329945678    5.20500318070730
H         5.89313592589529    4.70044799087052    5.28637855782233
C         3.95104065766614    4.29141282468116    6.31343593828405
C         4.34032364766982    4.36941951198829    7.65097926120482
C         3.47402439787819    4.21693834914590    8.73518474623828
C         3.88309816531225    4.32487500717057   10.10784565709771
H         4.87993836082488    4.53870222323381   10.44146392940010
C         2.77966195991918    4.10360891478443   10.86181063403930
H         2.69556804418837    4.11817345575942   11.93115458918673
C         1.70257985338320    3.83616289818270    9.94991933129428
C         0.39932734354816    3.53708219588829   10.35229485273278
C        -0.65357036597612    3.28144120893355    9.47283727338115
C        -1.99308785304397    2.97308738866396    9.89360402336301
H        -2.31397007654059    2.87035254787092   10.91188218988849
C        -2.73373662559862    2.83924611318268    8.76888761317318
H        -3.78197940857305    2.62610758293887    8.68925294153835
C        -1.84468587834244    3.05443463470109    7.66010003395325
C        -2.25853336506668    3.08215804558667    6.32754184415941
C         1.94311070442147    4.00977161509435    2.17453003368851
C         2.36070058304689    5.18282632420335    1.55383696295940
H         2.48170759577022    6.07971621870599    2.14367188427593
C         2.60530515836145    5.20636984789710    0.19417613643239
H         2.92397883857540    6.12586444568179   -0.27650430426865
C         2.44748228871805    4.06313076346675   -0.58175757593494
C         2.03493684434542    2.89313421631709    0.04204757243468
H         1.90967799178763    1.99250686715805   -0.54253422119848
C         1.78253381903573    2.86559550102252    1.40109089026979
H         1.47268852544908    1.94973253223594    1.88206405120767
C         2.73064744424775    4.10257079731289   -2.05291382017868
H         2.20317522080525    4.93136487814963   -2.52241675978886
H         2.42607657472801    3.17634990737419   -2.53358820954609
H         3.79695417452330    4.24647618804963   -2.22717650190890
C         5.77191413264833    4.60999664818342    7.93925529868557
C         6.71778676022127    3.64097175995488    7.62117030941195
H         6.38777754695836    2.71795299971563    7.16774914353839
C         8.05692157238841    3.85356191531710    7.88985515724980
H         8.77996945699203    3.08966475053292    7.64037957635906
C         8.48872695418397    5.03812159309411    8.47425769276725
C         7.54071970797485    6.00466678910054    8.78790077210480
H         7.85852371536664    6.93393732319912    9.23956877871639
C         6.19923503023021    5.79523318453433    8.52824109754897
H         5.47351516685680    6.55798300636391    8.77043804131994
C         9.93858742472017    5.26194993318446    8.78069802659629
H        10.19781874752641    6.31366798666530    8.68103924787447
H        10.57112541848650    4.67735056005461    8.11688108291838
H        10.15425725464814    4.95906655328577    9.80610629966608
C         0.10764667263703    3.50702275290746   11.80306125236096
C         0.68818952319617    2.55374409464662   12.63218845366080
H         1.35493901736479    1.82074662379519   12.20512004324975
C         0.40470271116820    2.53091812816459   13.98526213883448
H         0.86138633699070    1.77831797686024   14.61274402939022
C        -0.45871343312521    3.46053765072280   14.55022458951535
C        -1.03467513055638    4.41531699161586   13.72004363345971
H        -1.70688482971039    5.14935076097820   14.14172120781138
C        -0.76001319694930    4.43876460765616   12.36613874254927
H        -1.21055289109292    5.19012342825853   11.73412365071059
C        -0.78347164277967    3.42561732544215   16.01272533798134
H        -0.87341168962779    4.43319796096686   16.41326812129200
H        -0.01738098626339    2.89111647319504   16.56921764798810
H        -1.73502740892281    2.91685091070724   16.17123762081499
C        -3.67952672402882    2.78761002739091    6.03941665940172
C        -4.19943007203479    1.52448548790690    6.30701026567882
H        -3.55081111156580    0.76895628420952    6.72451538319948
C        -5.52222158381996    1.23860397224681    6.03046264556577
H        -5.91126054054973    0.25160966358065    6.23802067394680
C        -6.36502534555759    2.20380748739000    5.49022829041136
C        -5.84435217007673    3.46489249598430    5.23149316538372
H        -6.48457422630954    4.23110214137998    4.81724556298870
C        -4.51876155134962    3.75509375769335    5.49812926340305
H        -4.12939993560850    4.74299844009643    5.29930571542526
C        -7.79489315599457    1.87854940663746    5.18100763882720
H        -7.85643118725464    1.30746331444250    4.25403194443539
H        -8.38349470813828    2.78480873086575    5.06128773816307
H        -8.23340062018771    1.27511191735023    5.97329054872874
O         3.13863812272548    1.66085595444114    7.30881684323771
O         1.45544679166485    1.24725897795108    8.61720338497848
O        -0.02970712274433    0.99153002028625    6.49035923002539
O         1.66123112190991    1.40796563469205    5.19394588260876
C         2.65219178800364    1.05707121952557    8.29681660521434
C         3.53289076414422    0.12107672600628    9.10112760296910
H         3.27123047779093   -0.90558847513895    8.83222971224948
H         4.56686377852375    0.30633158866628    8.81162916279428
C         3.31515465165704    0.33102170944092   10.59868737901992
H         2.24895301409964    0.20324323858018   10.79736275227043
H         3.58577330537554    1.35858722000712   10.85500022946555
C         4.11739915617117   -0.63764337018541   11.46677555377577
H         3.79955161925556   -0.51527388156502   12.50493839486451
H         3.89079874482200   -1.66448225784472   11.17112843588538
C         5.62145191752286   -0.40368175513271   11.38253249268568
H         5.99479991334742   -0.61611580990471   10.38447650557257
H         6.14458310572563   -1.04989650931346   12.08399846666904
H         5.85793530367288    0.63006512023161   11.62499582716548
C         0.71924884073453    0.65482746459605    5.54024878664755
C         0.51596631724833   -0.66344582903932    4.81702950112840
H         1.12739016556090   -1.40239930801022    5.34307967736592
H         0.91786485895192   -0.56508933892886    3.80872104197890
C        -0.94072268234712   -1.12204604630324    4.80780918620566
H        -0.99426496854898   -2.11506218673975    4.35386045951957
H        -1.28019705379032   -1.19882036670422    5.84226996752639
C        -1.87172864747781   -0.16746672753699    4.06030382704381
H        -2.89546196832064   -0.53731775068171    4.15968352067496
H        -1.82717486310489    0.81255304304615    4.53576184136877
C        -1.53741584351443   -0.02512174970148    2.58033258569386
H        -1.48056456521940   -1.00134428256081    2.10194973118548
H        -0.58911246297296    0.48778396969343    2.44381967124799
H        -2.30515741438611    0.55958844963361    2.07912797976141

