33
CSD_code = WIWNAR | q = 0 | S = 0 | Stoichiometry = C14H8Cl2N2O6Ru | MND = 6
Ru        2.22923553253129    2.89785035216982   12.31808775393287
Cl        0.81516082327601    4.77213934784160   12.19622752804201
Cl        3.62517450574773    3.80504463103660   10.62250757207778
C         3.23058102788770    3.94535381914314   13.49913387477781
O         3.78281877798832    4.71636517430739   14.12275886335922
C         3.37602020550459    1.42894458675045   12.31838147523229
O         4.11932524809674    0.56568562710443   12.27359426537094
N         0.92404786430626    2.12771828786928   10.96844761472258
N         0.79468592902896    2.20447199918849   13.57201699891351
C         1.09361744065831    2.12312131698271    9.65133925933114
H         2.09537099158460    2.34737442538908    9.29930234713190
C         0.05705903114436    1.88205143278646    8.76592923914090
H         0.22736462499753    1.90084889249543    7.70234802248316
C        -1.21110737411094    1.62856713289327    9.28140073604549
C        -1.38783107280829    1.62610738292499   10.65994686826381
H        -2.37358514104636    1.44073568780377   11.05500678764338
C        -0.29829942683525    1.88663473611389   11.48434635473564
C        -0.36617677611337    1.90959088374106   12.94760376936372
C        -1.52138623597581    1.63486588355037   13.67161398250477
H        -2.45563958637776    1.40460385302410   13.18528533993135
C        -1.48489120875014    1.67354848042404   15.05951543188393
C        -0.27538250945842    1.96911084467396   15.68905615007516
H        -0.21043072354247    2.00675021722722   16.76371201443368
C         0.83072226334251    2.22351840506127   14.90336135147972
H         1.78777619797908    2.45703971921851   15.35337044642195
C        -2.39344304557341    1.36348553563375    8.41212763972483
O        -2.10802112344121    1.44066980343163    7.11228627040032
O        -3.48780168090205    1.10121376154582    8.83566247744236
C        -2.73665929290238    1.39603360052135   15.81668190446718
O        -2.58245635240343    1.52230615567971   17.13622658080892
O        -3.77714527894946    1.08797599379050   15.29850281382806
H        -2.90156528253188    1.27134315549637    6.57980136194035
H        -3.42023835234894    1.34362887417897   17.59251690408846

