100
CSD_code = WIWNIC | q = 1 | S = 0 | Stoichiometry = C48H43N4OOsP2S(1+) | MND = 6
Os        2.08693941574749    6.64960559509086   13.44003105790182
H         2.15618692127171    7.64437591532864   14.66681255279182
N         2.19848113084819    8.25464769683716   12.07910076781846
C         2.28018846319174    7.75354673637981   10.83939811209551
N         2.36463950081704    8.74375897991648    9.92226293711028
C         2.46476393991239    8.57556128611258    8.49991583372271
H         2.52877895258586    7.51083780913348    8.28486268291094
H         3.35748939476108    9.07761345192501    8.12601962052682
H         1.58905253668205    9.00043977635833    8.00586692430226
C         2.34997098364630    9.91730227551203   10.61810867236360
H         2.41053097319005   10.86676542288790   10.12878378925399
C         2.24989070699352    9.60205667350191   11.94540302259424
H         2.22174504983217   10.25661302403412   12.79230885638401
N         2.27466649052264    6.44004492682882   10.58094958327965
N         2.12469689401949    5.69129924689315   11.63716628281360
C         2.21665246489770    4.35096416571812   11.31843288935121
C         2.96481284402763    3.92606140462728   10.19717967128557
C         3.06177303670431    2.56581892704240    9.92723233179423
H         3.62312963845169    2.22472801307929    9.07306239786341
C         2.42331045163035    1.63894888092419   10.72407483223850
H         2.50275935028999    0.58975067007060   10.48572978072710
C         1.66867262051038    2.05303056427212   11.81520118707924
H         1.15341449641247    1.33003397751513   12.42697624367179
C         1.57297055438944    3.39248688115819   12.10810005993275
H         0.96548367008756    3.72793788290639   12.93443392698028
S         3.77346644376295    5.12173590948853    9.20447157740354
C         5.12010115550729    4.15580170539015    8.43830361791382
H         5.61532038051755    3.54856354947545    9.18861437727562
H         5.81124790031044    4.89274459261636    8.04127207434003
H         4.73445086498998    3.55070390760850    7.62397111506984
P        -0.28067421866213    6.88370864036899   13.40568278305967
C        -1.03383161295011    5.65478940920846   12.29261155296164
C        -0.86943991896320    5.78953239241638   10.91441591682204
H        -0.39101801631354    6.67372740764980   10.51132980094776
C        -1.31195165540672    4.79747082455986   10.06027504354309
H        -1.18438816293065    4.91072607234473    8.99400401843152
C        -1.91369093875302    3.65882155222318   10.57223292064288
H        -2.25843133542051    2.88507165725211    9.90369080616446
C        -2.06987953186770    3.51378855784994   11.94070164113673
H        -2.53523890737472    2.62587336897338   12.34089714972776
C        -1.62482019198918    4.50160126352831   12.80126317287457
H        -1.73284087173079    4.38076060475282   13.87038263136673
C        -1.22873238528455    6.70444680734946   14.94886499329790
C        -2.62049466836629    6.76169706499770   14.88827676530486
H        -3.11277739492141    6.88258898337283   13.93251278369760
C        -3.36422239638564    6.65957467274116   16.04766518649092
H        -4.44184954269090    6.70079816015978   15.99979565190037
C        -2.72754489541230    6.50806766463582   17.27070895057115
H        -3.31211729753166    6.42869058500338   18.17439845520493
C        -1.34498832712141    6.46522830478097   17.33391093979396
H        -0.85007493493787    6.35395342768842   18.28657054490559
C        -0.59262680012138    6.56688029293155   16.17584653078998
H         0.48888890577012    6.54843516049521   16.21410452430493
C        -0.92977683659362    8.49845856383328   12.86441295389741
C        -1.89717888942486    8.67306621342305   11.88221682211510
H        -2.30300087140392    7.82412132619892   11.35058598961056
C        -2.35445438487972    9.94730740954842   11.59019057107536
H        -3.10611398955853   10.08063739695139   10.82644828996558
C        -1.86124148399376   11.04393774412369   12.27662459708537
H        -2.22444835833724   12.03319320837165   12.04366626614224
C        -0.91169355111663   10.86944544440582   13.27182249071215
H        -0.54045997961687   11.72193159656239   13.82060783632305
C        -0.44827974057955    9.60194080683549   13.56624376093197
H         0.28456911524458    9.44374823541827   14.34754425278409
P         4.47664930204211    6.61853108668561   13.45304509906546
C         5.30408036758983    5.16619769746581   12.71163649214876
C         6.45952624397689    5.24189456402829   11.94099194085125
H         6.90203085990553    6.19825839867953   11.70320215426422
C         7.05417597654389    4.08232270898409   11.47446103432433
H         7.95143443694262    4.14818556848497   10.87670194910288
C         6.51002533928553    2.84394949074082   11.77495258268822
H         6.97809616447349    1.94398807571613   11.40513311515183
C         5.37344497971973    2.76251203970215   12.56293636751753
H         4.95255084640544    1.80090647802254   12.81426172638593
C         4.77799334219655    3.91767225566552   13.03321101732186
H         3.90080267021005    3.85895509553091   13.66294824905169
C         5.15460082192932    8.05416073061357   12.56643185874435
C         5.41806697846770    9.22215536310829   13.27735258225976
H         5.29751722466410    9.22816906926085   14.35195488773042
C         5.83355623272596   10.36024371993155   12.61081698952286
H         6.04681683227681   11.26038685060051   13.16691980741855
C         5.97605193838066   10.34609834247367   11.23260294742514
H         6.30696075204120   11.23308868370075   10.71426297706758
C         5.68992442789174    9.19351440114745   10.51887304382427
H         5.79867597048613    9.18098894525402    9.44398477566389
C         5.27025608553664    8.05177850870071   11.17758060924053
H         5.03222860817316    7.15996357690890   10.61169029023010
C         5.35963858702077    6.65582204269106   15.04566427776474
C         4.67686629873935    6.49819647791993   16.24490586397444
H         3.59905822945991    6.40040188699179   16.23260831551844
C         5.37590858997121    6.48417604495293   17.43986338013281
H         4.84352649568457    6.36339309111283   18.37094467372979
C         6.75335481514382    6.62518853129890   17.44096893197463
H         7.29687124554499    6.61514097728315   18.37325663567528
C         7.43720842430562    6.77950206259072   16.24436687948216
H         8.51114917818583    6.88910098478739   16.24494994309108
C         6.74671281555849    6.79018725890317   15.04802235213706
H         7.27999827068391    6.90817239001165   14.11475884438100
C         1.96159541629105    5.16794976985515   14.57529971596668
O         1.86658207460882    4.29664616026193   15.32618431582978

