82
CSD_code = WIWPAW | q = 0 | S = 0 | Stoichiometry = C31H45Cl2N3Pd | MND = 4
Pd        3.37777617886166   17.18865164533124    4.51947064568671
Cl        1.56352102365196   18.33366581233972    5.32595276647515
Cl        2.71856566622339   15.24897027503221    5.44972116674689
N         5.91892452085740   15.91408244593806    4.80543528383214
H         6.64692846560930   15.22815812163060    4.62695467768456
N         5.02260425356993   15.57780202060333    2.70743272191375
N         3.58904273021745   19.77488025043402    2.96092340483922
C         5.71400809978604   16.17709421296940    6.20028272519219
C         5.71732038493458   17.48646251474841    6.69373648585852
C         6.09142934720444   18.68010205460299    5.83802866632066
H         6.04679247717530   18.39449187962397    4.77919383851991
C         5.13652197584836   19.85651839188596    6.06524528092888
H         4.09814095341282   19.51258461621521    6.03391260155461
H         5.28262156016983   20.61212313541886    5.29517317300177
H         5.31439790532488   20.32445250803988    7.03006243857568
C         7.53498843974302   19.08685088934531    6.15494602737639
H         7.63354639506796   19.35949155504977    7.20286399322906
H         7.82640784668374   19.94009732638557    5.54613940150838
H         8.21928809187508   18.26587575547545    5.95076788192261
C         5.49472485197189   17.67346372749466    8.05543686647657
H         5.48549985496099   18.67286673962571    8.46003507630470
C         5.29463641022227   16.60088986370341    8.89942829154554
H         5.11627053788987   16.76751867549395    9.95124514536807
C         5.33124841835162   15.31219990707020    8.40202828778901
H         5.18585076167723   14.48240222977616    9.07404850980495
C         5.52825939581804   15.07696123817769    7.05040714665313
C         5.56778218580460   13.66618486674660    6.50576270338829
H         5.25682162902089   13.69792716658259    5.45760888092785
C         6.99776770403752   13.12103201754671    6.59760887209177
H         7.70991859665604   13.77010124978473    6.08819249786558
H         7.05464392981572   12.12935682807835    6.15321643702625
H         7.30104580684637   13.04867775193540    7.63972585358074
C         4.58849080784319   12.72860192895925    7.20852385862004
H         4.88633359141662   12.52377360155648    8.23334552498325
H         4.54554371269686   11.78050310503083    6.67591329651086
H         3.59707671786917   13.17263855736916    7.20185242830774
C         4.94698182169626   16.11902948045987    3.91549659647167
C         3.86584862465515   15.59823888593266    1.82360515050417
H         4.20715929000909   15.81980344314502    0.80580023338886
H         3.16306426732891   16.38422933650425    2.15224092445570
C         3.17162072807749   14.23605062632747    1.87724291005660
H         2.29738539279415   14.24551674232985    1.22626161760785
H         2.83457154581059   14.06915384324959    2.90441340319943
C         4.14171148386919   13.13632122800469    1.45425150398783
H         4.41494307200163   13.27185066221328    0.40402911145555
H         3.66698194139728   12.15984040495798    1.55397589398387
C         5.39887265970887   13.19469225158226    2.31825618716105
H         5.13338239521830   12.96357357608396    3.35176706068038
H         6.13443243667885   12.46290646799033    1.98030532378523
C         6.00176701347542   14.59975196627194    2.25467831295111
H         6.91969504018972   14.66151025391926    2.84154176315247
H         6.25926656642265   14.84334162772902    1.21796150091202
C         3.67459371498125   18.77257282948204    3.55664504810873
C         3.56436535763390   20.96130693645086    2.30425903013591
C         4.42014820081882   21.12856244929125    1.20253405048079
C         5.33444418744972   19.99400611420547    0.80092511952655
H         4.80504267132602   19.05103725787708    0.98935965828441
C         6.58631219365335   20.01878410796029    1.68619077859616
H         7.25065706887079   19.19868657603732    1.42286767582831
H         6.31762002164757   19.92050829260115    2.73547788993825
H         7.12204589360382   20.95617690571710    1.55210242393394
C         5.72720488912776   20.02671714401392   -0.67455323700388
H         4.84622190855953   20.11934295755999   -1.30537609269815
H         6.24286913959063   19.10531586220170   -0.93676219793196
H         6.39915020753786   20.85510072328399   -0.88435056529933
C         4.40786465257546   22.35304001943491    0.55751382052225
H         5.05507618999405   22.52515928473815   -0.28720028197858
C         3.56876220232822   23.36902371953830    0.98574654344993
H         3.57440482655047   24.31779504864211    0.46994778032065
C         2.72567949777238   23.17785073706153    2.06398329126187
H         2.07838658101377   23.98045717978122    2.38094672752989
C         2.69902037993548   21.97000815738706    2.74703876342401
C         1.79115689209951   21.75648176959872    3.93143428559656
H         1.84378220131633   20.71108210873962    4.24979751515529
C         0.33468529366825   22.05326383802485    3.57043603600194
H         0.18250607299218   23.10827271825740    3.35347750140073
H        -0.30543723138385   21.77647218753623    4.40358567214866
H         0.03372130552777   21.47194416491170    2.70184146098371
C         2.24795937504462   22.62876163403669    5.10381733511410
H         3.28196843588132   22.41027367960924    5.36164795697734
H         1.62886486999449   22.42312552847195    5.97259309331119
H         2.16719749143443   23.68610440508517    4.85922256468157

