24
CSD_code = WIWQEA | q = 0 | S = 0 | Stoichiometry = C8H7MoN3O5 | MND = 7
Mo        1.95299112749163   -0.24867239072521    4.56679777212030
C         0.94838036126848    3.55289056243141    6.12479448306276
H         0.63850735756369    4.56128171931443    5.93566033228672
C         1.22378023148923    2.91807976618699    7.31867354990203
H         1.17420206442998    3.33853926143465    8.30161174440523
C         1.58161217731976    1.60679144998175    6.95881575148329
C         1.98779969572525    0.41178478825061    7.68321874003936
C         2.12212969838677    0.32839383378230    9.06551363403440
H         1.91915364239179    1.18740662514504    9.68464560025939
C         2.52129160518013   -0.87854830476502    9.61907210657473
H         2.63552354182089   -0.97511058766915   10.68830977609150
C         2.77075775315404   -1.95463970291285    8.78175212181477
H         3.08286680176674   -2.90728970266885    9.17816972854839
C         2.61146299576090   -1.78627076634590    7.41156060413507
H         2.79085300928336   -2.58944718049766    6.70705541339558
N         1.51542990985130    1.49435680479214    5.63277153974001
N         1.13749223084131    2.65781856209794    5.14310801819527
H         1.04059712179152    2.73393636008480    4.13431686793053
N         2.23185829843478   -0.63662776464209    6.88408037498204
O         3.58692558925708   -1.07079019467661    4.38139988475323
O         3.70536473075290    0.20559870989977    4.87737905506482
O         1.01245957075703   -1.82824817952626    4.56111611552547
O         0.28893749185981   -0.79941084333423    5.11539767762593
O         1.60842299342190    0.59827717436186    3.19437910802929

