95
CSD_code = WIWQUR | q = 0 | S = 0 | Stoichiometry = C38H48FeN6O2 | MND = 6
Fe       -1.66528176616350    1.33840662602879    3.96436596655904
O        -2.26754394065188    2.73592391130185    5.25774649015186
N        -3.40497390871348    1.37877323134692    3.49973915043300
N        -1.65658982400220   -0.01297283883577    2.56668976400697
N        -3.87442017723086    0.60961090389172    2.55775205764623
C        -3.50195136259490    3.03874960393505    5.07845975047200
C        -4.21021955338307    4.06292588585535    5.77150751095390
C        -6.24831339073441    3.47520603225551    4.50649972522026
C        -2.90242986141860   -0.16036685901055    2.03904305776281
C        -4.21496214793273    2.28222780227064    4.10267879095042
C        -5.53773133186847    4.23391010159795    5.46419178354515
H        -6.08340674469851    5.00420789649386    5.98330063590888
C        -5.57243831273235    2.49712673087039    3.82305299539552
H        -6.02450845744890    1.87738149737098    3.06760256335544
C        -3.46623762552423    4.91009877432564    6.79042816337158
C        -0.66211976010617   -0.73400562559838    2.06450939115960
H         0.30894898886966   -0.57350797608067    2.51190307766537
C        -7.71838828218050    3.78764150176591    4.27269880654380
C        -2.30590631416654    5.61654917295751    6.07573012380108
H        -1.64091732751495    4.88485558813681    5.62628796165467
H        -1.73777078161186    6.21712713078349    6.78329345162838
H        -2.68673618477472    6.26797491154928    5.29135144519296
C        -3.15086590300861   -1.06495810598680    0.99521996288515
H        -4.15470651020562   -1.14405010222927    0.61328308919288
C        -2.91328885073124    3.98947373119716    7.88675687376737
H        -3.72679463965572    3.47167168367450    8.39211476658129
H        -2.36042991805056    4.57039170277258    8.62217299299439
H        -2.24559285541601    3.25141644478547    7.45225355770511
C        -0.83367829614010   -1.63988766486673    1.03686367860744
H         0.00787313475458   -2.20128832480653    0.66571278844432
C        -2.10795426769240   -1.80660265898123    0.49464285464880
H        -2.26931712938109   -2.50801265651048   -0.31009113667148
C        -8.49489764719088    3.58562815457367    5.58157334783136
H        -9.55242913313039    3.78850564748141    5.42501511847731
H        -8.13493232163712    4.24722317600301    6.36445502680426
H        -8.38731733383709    2.55950666345779    5.92662911847458
C        -4.35390034341934    5.97072666013935    7.44688783170794
H        -4.74742420891315    6.66540800662372    6.70814040127425
H        -3.76254023961660    6.54030350433780    8.16096385434525
H        -5.18079387112471    5.51320671498641    7.98590819589907
C        -8.33887810004093    2.88249821633573    3.20524433694829
H        -8.28148494932014    1.83742210378633    3.49931455389986
H        -7.83853602529472    3.01032686892107    2.24875748383482
H        -9.38833535246425    3.13962921248760    3.07493718700660
C        -7.85728084675039    5.24319115767052    3.80462904757027
H        -8.90034529655439    5.47205654145300    3.59560539509911
H        -7.27958665671141    5.40042515775514    2.89651598975340
H        -7.50190632582564    5.93971064634179    4.55876325979074
O        -1.07273747237332    2.74195606843984    2.67363050631130
N         0.07570562615941    1.38361510661137    4.42334433653967
N        -1.66600673039885   -0.01248565155949    5.36244598888799
N         0.55078123991851    0.61411491808398    5.36232790781764
C         0.16361844254356    3.04242400361627    2.84296684598822
C         0.86801918383489    4.06537484156481    2.14422890208195
C         2.91641919529766    3.47040357996664    3.38899133523226
C        -0.41805810040008   -0.15666439660312    5.88586721155067
C         0.88293238616720    2.28469591591299    3.81315875366022
C         2.19898746439193    4.23195469300946    2.43866415732114
H         2.74209215856241    5.00066683459826    1.91453162416718
C         2.24367353986320    2.49541226953760    4.07991933570213
H         2.70089598960234    1.87461683701144    4.83140597471799
C         0.11640266962478    4.91600984024368    1.13384096351244
C        -2.65724555552060   -0.73502196164340    5.86862643630001
H        -3.63005559690542   -0.57694806477464    5.42417598941747
C         4.39040697382145    3.77612746076114    3.60647545568074
C        -1.03489076672859    5.62441484698912    1.86116970038251
H        -1.69758330497494    4.89379467837975    2.31573483758763
H        -1.60820446367869    6.22793545939302    1.16032464604093
H        -0.64453493115678    6.27329269326551    2.64297892765309
C        -0.16411804504822   -1.05977350649726    6.92963816485919
H         0.84119071647494   -1.13645879225681    7.30819165673078
C        -0.44994118756762    3.99878662538105    0.04152311977633
H         0.35703565539384    3.47947739834905   -0.47267331558922
H        -1.00831191438985    4.58256123559849   -0.68743713552834
H        -1.11549071274753    3.26193465137112    0.48133385690418
C        -2.48029197640576   -1.63950940434663    6.89664946387105
H        -3.31936069887287   -2.20230928087633    7.27128257327636
C        -1.20381621340876   -1.80300097353162    7.43459931305110
H        -1.03820086615796   -2.50321981211870    8.23950990417801
C         5.15101187745266    3.57114251723297    2.28872229126402
H         6.21130292021191    3.76830827688060    2.43344864568355
H         4.78573472212372    4.23529255522959    1.51048120929902
H         5.03411986487775    2.54590047895340    1.94406558507159
C         1.00046138161218    5.97534069171771    0.47046604021605
H         1.40356150155807    6.66737615288294    1.20653014552605
H         0.40353655852604    6.54807055071820   -0.23641366559312
H         1.82045232103942    5.51646682293421   -0.07786587973387
C         5.01883976766836    2.86746274873104    4.66626369268707
H         4.95276650745484    1.82280776279443    4.37249943227449
H         4.53042209552065    2.99737833853606    5.62861219204628
H         6.07102532394302    3.11929708816058    4.78433624432249
C         4.54143819870386    5.23075615286227    4.07356445112190
H         5.58799625182487    5.45486678167797    4.26987284660331
H         3.97564649162243    5.39002647371928    4.98878572160291
H         4.17991346489723    5.92926200851265    3.32420136933793

