95
CSD_code = WIWSED | q = 0 | S = 0 | Stoichiometry = C38H48N6O2Zn | MND = 6
Zn        7.52591063788893    5.96965258677025    3.88511022905029
N         9.43209167694653    6.06137067543082    4.45038088571441
C        11.66290441775945    5.19192678105632    4.02870229867707
H        12.05748816941039    5.85386659700484    4.78151717862986
O         8.37140555192140    4.56452671582328    2.60806479673784
N         9.81332436326361    6.87108627889182    5.37931688619333
N         7.54145321230594    7.47563485811621    5.44781953109362
C         9.08145661504332    8.43149389189020    7.01375214155217
H        10.09839799851264    8.48801905505809    7.36593667090970
C         8.78901213077998    7.58466002270766    5.93279398109790
C        12.42835585296961    4.31446363441728    3.32230387887033
C        10.44227701558468    3.49800464800075    2.09749829407241
C         9.60826167259502    4.43635043025976    2.80869096159227
C        10.26948075547129    5.26456806559904    3.79911185817648
C        11.77939534376088    3.47919386782668    2.37024139964004
H        12.40176632420329    2.78195588306084    1.83418654294208
C         8.72447201754717    1.73147672016420    1.79870573719378
H         8.23826890639125    1.06212581295051    1.09199429065828
H         9.18086954567958    1.13433118890067    2.58607315417023
H         7.97141446845187    2.37490472615931    2.24281829631270
C         8.05995468992767    9.15057759300316    7.59079396203664
H         8.25393974347202    9.80656672650514    8.42694016920493
C         6.77028477924319    9.01986144844808    7.08274364488779
H         5.94420026778875    9.56533855527241    7.50963700663727
C         6.56919902191991    8.16952403099239    6.00959031300472
H         5.58464197105518    8.03941809576841    5.57880460375781
C        10.78918278831476    1.61690339352875    0.41966565629580
H        10.25866556515797    0.97920359496165   -0.28446256631895
H        11.55111105165345    2.16262904013427   -0.13306366116619
H        11.26867064776974    0.97512158879261    1.15568977774463
C        13.93046880542648    4.17491589382665    3.50530542902345
C         9.79118984007948    2.57139411288682    1.08215815174388
C         9.13413133628158    3.41993794086826   -0.01540214104524
H         8.65720403707680    2.77539861393901   -0.75087307563162
H         8.38168871264794    4.07392323253994    0.41414207534773
H         9.88168406115558    4.02969630594802   -0.52021971802916
C        14.63202947076568    4.47408931311233    2.17280390613867
H        14.32927601300485    3.77711826424768    1.39627675536227
H        14.39050763073056    5.48134044231569    1.83982328709281
H        15.71079333161519    4.39965229701919    2.29346279623905
C        14.47453037682184    5.14201895477379    4.55999566906246
H        14.02444599747427    4.95159626560752    5.53098830744380
H        15.55064627872848    5.01054482804249    4.65446664430383
H        14.28390027072306    6.17429060083940    4.27685117572347
C        14.25396058833640    2.74316876416475    3.95511153826149
H        13.73216262775681    2.51546707473513    4.88206061951504
H        13.95586698725101    2.01262978104273    3.20821242979400
H        15.32343126267938    2.63731407107004    4.12511064589339
N         5.61972818416481    6.06136923626330    3.31984161819158
C         3.38891468722169    5.19193577938779    3.74153881740158
H         2.99432830894046    5.85387352088411    2.98872338503561
O         6.68042185710116    4.56452646367096    5.16215260424900
N         5.23849099538840    6.87108972024639    2.39091186429358
N         7.51036039904043    7.47564886947296    2.32241317800242
C         5.97035795228958    8.43148673202590    0.75646437349824
H         4.95341253926783    8.48802892400308    0.40429590902955
C         6.26280028577101    7.58467349917390    1.83743990228304
C         2.62346655212621    4.31447234182858    4.44794026325517
C         4.60955541467286    3.49799327732800    5.67271641827761
C         5.44356261963487    4.43635823034524    4.96154013972599
C         4.78234057838070    5.26457172462922    3.97111855002454
C         3.27243523166682    3.47918515061006    5.39998213736452
H         2.65006326472014    2.78196211440055    5.93605530967392
C         6.32735891453300    1.73146866668724    5.97148550382566
H         6.81356514963218    1.06211073611096    6.67818792839473
H         5.87095213388663    1.13433114917160    5.18411732053532
H         7.08041436235914    2.37489870682158    5.52737205671996
C         6.99186484193839    9.15054730192304    0.17940127852034
H         6.79786452012042    9.80658466547076   -0.65670167132508
C         8.28152945291095    9.01986316356583    0.68747512411238
H         9.10761189226449    9.56534626790264    0.26058508644206
C         8.48261152279423    8.16954713997388    1.76064784297799
H         9.46717593698485    8.03940876420913    2.19140657704924
C         4.26266062530708    1.61688996619114    7.35054922721872
H         4.79318222020818    0.97918524451203    8.05466979050076
H         3.50073484813467    2.16261191265615    7.90328625090544
H         3.78316903414673    0.97511291202786    6.61452397844872
C         1.12135228230546    4.17492813160606    4.26494742775592
C         5.26064903412294    2.57138077748947    6.68805048636272
C         5.91771665134703    3.41991238664444    7.78561543141885
H         6.39465101346208    2.77536808889923    8.52107779406083
H         6.67015673453362    4.07389808548117    7.35606853988563
H         5.17017178160414    4.02967094989273    8.29044464433693
C         0.41980383389678    4.47410174048425    5.59745510149727
H         0.72256077898413    3.77712843714961    6.37397891164098
H         0.66133203777927    5.48135158268155    5.93043474887513
H        -0.65896110882278    4.39966987563370    5.47680352588864
C         0.57728734568278    5.14203468264979    3.21026205444076
H         1.02735923658537    4.95160760841456    2.23926436978778
H        -0.49883060672657    5.01056894473149    3.11580355810091
H         0.76792834902557    6.17430511745724    3.49340331221635
C         0.79785002946127    2.74318321313802    3.81514133579143
H         1.31963669636646    2.51548196664864    2.88818570771961
H         1.09594987589300    2.01264132006087    4.56203505617678
H        -0.27162312222375    2.63733164535741    3.64515481358277

