43
CSD_code = WIWSOL | q = -1 | S = 0 | Stoichiometry = C24H14AuN4(1-) | MND = 2
Au       -0.90323938184251    6.63897530505033    3.67552869090630
N         5.10116904696507    7.52163552284068    0.79851011793329
N         6.54166014885781    6.29807153776352   -2.25160899606419
C         0.69841236663053    6.64614280800315    2.58595968178979
C         1.70442542982058    6.66828035869423    1.89848305744953
C         2.86113049522338    6.69731898575317    1.10740505303128
C         2.96309184471234    5.99278645418701   -0.10364662390291
H         2.12501158136955    5.39985450380767   -0.44661511333118
C         4.12594016277400    6.06868557802036   -0.83445459470467
H         4.24642483218523    5.54452916410914   -1.77008673431857
C         5.18658224347182    6.84678124251516   -0.35607782657003
C         3.99047676537102    7.44621371992427    1.49065637191911
H         3.97186649671493    8.01108254343620    2.41642035363492
C         6.43770531335775    6.95932990679956   -1.09517144750130
C         7.66737406740094    6.39107907133549   -2.93126713856954
H         7.69294098605297    5.83349286632739   -3.86133211448860
C         8.76115325290345    7.13639381768381   -2.52137768893774
H         9.65980814611834    7.17649080978587   -3.11919990374606
C         8.66052785492138    7.82707010913532   -1.31903464959192
H         9.48938169464764    8.42235321939919   -0.95830220823038
C         7.49026201471922    7.74042221347563   -0.59697501979336
H         7.35195335166232    8.25278643539355    0.34126630985901
N        -6.90814655199154    7.52130673323461    6.55263710231408
N        -8.34680444508252    6.29820613513247    9.60382076050139
C        -2.50507499950386    6.64703954930853    4.76482397666361
C        -3.51123550156347    6.66886481866092    5.45208914721860
C        -4.66791646807900    6.69769832304517    6.24321142400872
C        -4.76932842820921    5.99324101580420    7.45435545674462
H        -3.93095589109085    5.40060878063256    7.79712418332228
C        -5.93197424653318    6.06886261855279    8.18549490847659
H        -6.05205307353170    5.54470549740600    9.12117759083839
C        -6.99297500625475    6.84662403289706    7.70736663099439
C        -5.79763262815248    7.44613593473563    5.86015645833039
H        -5.77952015173705    8.01082338230847    4.93426867633716
C        -8.24372005969502    6.95913131815409    8.44711168586372
C        -9.47198476136672    6.39141799862769   10.28432621319375
H        -9.49685179459025    5.83405699398152   11.21454486039602
C       -10.56607051019191    7.13663074478995    9.87506389043441
H       -11.46422729644413    7.17699362179790   10.47361847466019
C       -10.46640528610208    7.82685039797679    8.67237930802809
H       -11.29553850556179    8.42202635497050    8.31211567417250
C        -9.29670017619759    7.73997486922078    7.94942874043152
H        -9.15914293215430    8.25202470531756    7.01090526029751

