33
CSD_code = WIWVEG | q = 0 | S = 0 | Stoichiometry = C6H12N6NiO8 | MND = 6
Ni        3.88512380921975   13.23990208350878    0.00033057365262
N         4.59909784076679   11.55955286243099    0.20741947287161
N         4.83703868317030    9.34718403464704    0.07186514611134
N         6.96134425479696    9.10301566308295    1.24252387028918
O         6.93753888108834    7.90035971155322    1.10328342841326
O         7.85707785827675    9.72250477423854    1.80129769451684
C         4.09099202053956   10.37624320372710   -0.22527253028137
H         3.16923193421981   10.28921044062931   -0.77083414764903
C         5.89981565970287    9.87303028201502    0.73774761397593
C         5.75929521119384   11.24869850282949    0.82542879584367
H         6.40715267057774   11.96407084455402    1.29503726279060
O         1.98076814197282   12.55613782243172    1.02557217840275
H         1.23240884678621   13.02132939978556    0.63636497327285
H         1.85282882335045   11.61659735927668    0.85700167465655
O         4.55624712163963   13.78878552436269    2.07229256194553
H         3.89976948846084   14.39374153172116    2.43407658036659
H         4.53011732689938   12.99064500192998    2.61124911569387
N         3.17162369847888   14.92040845135719   -0.20722248487375
N         2.93452370704067   17.13287785467007   -0.07169067925044
N         0.81062745743096   17.37787853924360   -1.24293870154923
O         0.83470881101553   18.58050019999040   -1.10340822652485
O        -0.08533635799692   16.75872145281993   -1.80170734798005
C         3.68013597985251   16.10353019064873    0.22553153592963
H         4.60174568454933   16.19017096866071    0.77141447792398
C         1.87168315523814   16.60745056035174   -0.73780782888613
C         2.01164332594939   15.23172161912881   -0.82539736533956
H         1.36347175357662   14.51660060858289   -1.29494867030721
O         5.78896859695292   13.92331473783407   -1.02610355518785
H         6.53771401800881   13.45788312351877   -0.63787292449570
H         5.91741756963278   14.86282951698176   -0.85756760908593
O         3.21321586915172   12.69076067688111   -2.07150476101103
H         3.86935058268332   12.08556472767722   -2.43351818269004
H         3.23925757577315   13.48877772892778   -2.61064194154497

