90
CSD_code = WIWWUU | q = 0 | S = 0 | Stoichiometry = C38H36B2Cl4CoN5O4 | MND = 6
Co        8.14812307363298    0.70712012517892   22.69509086208800
Cl       14.24296317298048   -5.41373201497826   25.31009596966029
Cl        5.43822026670503   -1.14890711778038   29.17413536808700
Cl        2.66376321858128    7.02294555213026   19.00013982873936
Cl       11.51033540926656    1.60610751140807   16.92299867791972
O        10.21998702800388   -0.15992694419734   24.43014447101023
O         8.86859380933331   -1.95783602066379   23.34937174861981
O         7.42647690550091    3.38013811225795   22.02057371823987
O         6.07339334237431    1.58944900581099   20.95135370312509
N         9.48797830759824    0.85006602913523   23.96118102414187
N         7.99345896537929   -1.13318815182761   22.77422020216428
N         8.22934695967556    2.55919598590267   22.69651138780262
N         6.72910358337470    0.57185468679113   21.50924321036975
N         9.68258935408688    0.42987830410481   21.22372894140264
C        10.92607948832492    2.41558269332148   25.21092413416170
H        10.53902019269261    3.01435710036389   26.03391126048411
H        11.70010935676227    2.99448088463671   24.70889173514736
H        11.36683220762059    1.50165670114871   25.60151017281025
C         9.82432463980414    2.06748411333513   24.26518263694286
C         9.05076325537121    3.06388534232349   23.56750759986038
C         9.19024168612123    4.52711390038645   23.82719384278925
H         8.85416923088399    4.76262950078457   24.83598773009741
H         8.57820777303041    5.07773893774224   23.11701059547356
H        10.22893146727551    4.83990898707611   23.73618323810664
C        10.77360300177678   -2.55047141066224   24.83961520386877
C        11.73708749364473   -2.68979631303680   23.84411799635876
H        11.64863440517977   -2.09893121001100   22.94359267147735
C        12.80268872408429   -3.56176178048226   23.97509822648051
H        13.54161646155782   -3.65807569806185   23.19381107659995
C        12.91317888752427   -4.31675391716263   25.12974103658448
C        11.97492344837720   -4.20551984601033   26.14060880027722
H        12.07249645994453   -4.79999092507969   27.03612663631731
C        10.91747144031865   -3.32573459722559   25.98542688760762
H        10.18541259211140   -3.23913932509598   26.77481337970616
C         8.48249741232161   -1.43133856256682   25.83593094573894
C         8.64871897674801   -0.54221186931246   26.89402384012169
H         9.52559424043628    0.08832937797804   26.91755660130007
C         7.72653379302642   -0.44742790297482   27.92084945599981
H         7.87202898445546    0.24895790543308   28.73269906929977
C         6.60780014513074   -1.26157397118061   27.89863152548137
C         6.41609654432383   -2.16885737590373   26.87153335968465
H         5.54546958750063   -2.80702397608644   26.86964527230568
C         7.35303913720036   -2.24473059868728   25.85653799389879
H         7.20604183925858   -2.96004058190314   25.06049022294749
C         6.77375517595818   -3.09531761725911   21.91141891736406
H         5.77959115331277   -3.33596776669925   22.28541248509818
H         7.51755360253421   -3.65048406626731   22.47772838884831
H         6.82170315503818   -3.39920683196979   20.86683275097864
C         7.03547372740843   -1.63205039325886   22.05256062848111
C         6.26198672387577   -0.63131601339766   21.36083980825287
C         5.05008921985601   -0.96000700750326   20.55387346903232
H         4.28709992086423   -1.40915237244665   21.18753602271018
H         5.29180889170062   -1.66933470289693   19.76361039413387
H         4.65331863992071   -0.04814333099008   20.11460729899283
C         5.76330603817148    3.97104342090441   20.24180952669468
C         4.81987366902290    4.45234794754637   21.14540558012169
H         4.83590760410707    4.08779761500389   22.16104792408691
C         3.86718093480441    5.38594948260665   20.77908237570673
H         3.14312016447949    5.74901770009030   21.49260153707550
C         3.85071919402959    5.85314560958496   19.47656946085880
C         4.77194267919923    5.39739219232488   18.55018889407285
H         4.74962843803570    5.76970563390259   17.53734406003738
C         5.71608400852959    4.46406285656642   18.94150282315698
H         6.43552089937323    4.11169293926773   18.21670504978590
C         8.04705379284616    2.59545675650464   19.65867592371147
C         7.94060218589067    1.60285220562138   18.68813094095076
H         7.01722755761198    1.04805931092865   18.60426029109174
C         8.98446835343287    1.30508588331504   17.83071530545034
H         8.88962632800601    0.52486816226627   17.09056662201518
C        10.16487495853629    2.01899233793346   17.93726020019045
C        10.29147434027163    3.04526079339103   18.85658070093751
H        11.20871914133297    3.61199817633954   18.91071023208898
C         9.23248831999204    3.32380444155947   19.70184019048648
H         9.32901537763107    4.12709724202307   20.41775351773762
C         9.61246166025686   -0.56551432572174   20.34163424859621
H         8.65790669723356   -1.05967210805449   20.23578868778966
C        10.68573574040485   -0.98194190159033   19.57431832132051
H        10.56533957412377   -1.80293221416576   18.88598217964970
C        11.90096472151667   -0.33272375028356   19.70839448921432
H        12.76244674117645   -0.63790846033915   19.13541563293415
C        11.96950531231857    0.73090111401906   20.59186296122692
H        12.88279343629973    1.28869309444755   20.72260187906706
C        10.84327136136186    1.07655469809894   21.31707572532156
H        10.88459099330026    1.91177016458844   22.00064101488702
C         6.75741721087513    0.91498028798651   24.10251514034233
H         7.19439835482297    1.24818591267702   25.04171432236057
H         6.24518953618895   -0.02625978693535   24.29120274144186
H         6.01648064217205    1.64932302166309   23.79125845672672
B         9.55865117797536   -1.51309103232675   24.62669461186114
B         6.84578637490199    2.87607403456889   20.71218600581089

