95
CSD_code = WIXCEL | q = 0 | S = 0 | Stoichiometry = C48H38MoN2O4Si2 | MND = 6
Mo       10.34772022216121    1.14786147575034   19.87768712241789
Si        9.56859574554894    2.01593469293334   23.08446127008426
O         8.99072175205571    0.22229237790478   19.72077162440631
O        10.17885652648548    1.73633973714476   21.63643926527373
N         9.01134348034013    3.09691206741685   19.72027504975027
C         7.71205485410314    3.06480552323996   19.53940120052210
C         6.94348384699755    4.22428446799599   19.38195302750001
C         7.56171819000042    5.44914607248422   19.44163716162213
C         8.94928433744331    5.50721167788878   19.65619029914573
C         9.63674451810320    4.27954082123194   19.77733550246102
C         9.67797922461819    6.72651299962682   19.76496017143950
C         9.18527648028401    0.33628174325504   23.87578895245485
C         9.39648954971710   -0.80581885007568   23.10412231794988
C         9.13253942016006   -2.06259927672977   23.61961801312988
C         8.65550510737184   -2.19764430171336   24.91361256917730
C         8.44152352944535   -1.07117071933682   25.69059848536025
C         8.70507034474846    0.18449300014197   25.17309376999978
C         7.98357607281771    3.06450020066010   22.86359427949859
C         8.02534232565358    4.45552320374713   22.84180139440866
C         6.88395483007024    5.20593745382279   22.61825553061571
C         5.67046074806155    4.57378790552527   22.40627513334278
C         5.60968124145094    3.19028446247839   22.41487323649960
C         6.75564001030403    2.44776455570682   22.64011851982207
C        10.83308246278039    3.05632870623147   24.05160482870557
C        12.15944833194709    3.08995475544815   23.63174991852745
C        13.09701810136833    3.87450383548359   24.27877656837133
C        12.72240217647559    4.63743069833033   25.37243339388230
C        11.41030452096429    4.60445942573701   25.81452465023955
C        10.47804615755794    3.82116530873632   25.15737681196138
H         7.26911132515743    2.07678948107820   19.51819584780987
H         5.87998490901841    4.14406754114675   19.22469964515012
H         7.00036703518019    6.36576119616024   19.33221678746621
H         9.13293778878375    7.65440109402464   19.67214494382748
H         9.76908353765389   -0.69339360544935   22.08613395668668
H         9.29863046908847   -2.93894602832825   23.01046353482060
H         8.45033936208852   -3.17908491635402   25.31718885159572
H         8.06958413401660   -1.17340408628952   26.70047243153219
H         8.53777498613621    1.06222023171070   25.78155304780550
H         8.96846185625448    4.95848910664793   23.01264181641445
H         6.93923720511799    6.28609413802316   22.61500215605123
H         4.77647185996049    5.15743501890730   22.23805574161277
H         4.66545865196012    2.69106981669937   22.24954433650868
H         6.70498952974565    1.36855550940307   22.64917127370121
H        12.44623896622827    2.48089821804359   22.78421983880371
H        14.12229049030229    3.89010377867256   23.93533415643944
H        13.45088372690364    5.25220112043667   25.88172949379251
H        11.11526832513893    5.19271684729986   26.67195966535479
H         9.45386464623380    3.80403150384036   25.50159598628090
O        11.70538812508236    0.22302487827035   20.03313476534624
O        10.51687106326955    1.73876956587852   18.11969337491875
Si       11.12665607805777    2.01662270574101   16.67097044279635
C        11.50975280261215    0.33683294039319   15.87905179649423
C        11.29911428932971   -0.80541575624223   16.65067716181265
C        11.56288315573785   -2.06216469594261   16.13495058167993
C        12.03946614551189   -2.19717658308509   14.84078934616032
C        12.25307820859182   -1.07066749225410   14.06379382141959
C        11.98945838090980    0.18497571883934   14.58144537955310
H        12.15697565576542    1.06268631996373   13.97303487746251
H        12.62499950495717   -1.17287236062566   13.05388710269043
H        12.24458625367436   -3.17859803656703   14.43711133158471
H        11.39673606715223   -2.93857208356223   16.74398773432297
H        10.92622691991313   -0.69315687843189   17.66855356712275
C        12.71224860673859    3.06444174687125   16.89080951516043
C        12.67115781578105    4.45548317009013   16.91153121588264
C        13.81272345635739    5.20546494950437   17.13554710619236
C        15.02575438557695    4.57285213633378   17.34875581493541
C        15.08586606280335    3.18931083775799   17.34114152547840
C        13.93969286217732    2.44720796833114   17.11565687308213
H        13.98989385895626    1.36796694906243   17.10684800543810
H        16.02981916133654    2.68974734930206   17.50696561474531
H        15.91990784571651    5.15616862450525   17.51720824339341
H        13.75785313425430    6.28563940045987   17.13865441970644
H        11.72820575535178    4.95878701329164   16.74066859145659
C         9.86285542622744    3.05702749392451   15.70280271922642
C         8.53659987923568    3.09178344281584   16.12280425609971
C         7.59940835405218    3.87648954866733   15.47541761706302
C         7.97434675285197    4.63867479641808   14.38136878712888
C         9.28634693461096    4.60464619082850   13.93911765308373
C        10.21814567563875    3.82090343640324   14.59641810118487
H        11.24245262228081    3.80358732354521   14.25250817976499
H         9.58175394902811    5.19274395425992   13.08167234769196
H         7.24617692531464    5.25364887181471   13.87187005584338
H         6.57406777586114    3.89249407734327   15.81867718897132
H         8.24933543147020    2.48265320630630   16.97015405657301
C        11.05746861208038    4.27989879570387   19.97492518475732
N        11.68366809777045    3.09761925949596   20.03063274075344
C        12.98279740314300    3.06617596785988   20.21283140249585
C        13.75046342102038    4.22597318287891   20.37226444488575
C        13.13164274716921    5.45052013706243   20.31241288874950
C        11.74412805170170    5.50789370205618   20.09734548138836
C        11.01488278672045    6.72684254051787   19.98830221929840
H        11.55941822516388    7.65499913783414   20.08139857835819
H        13.69257401096910    6.36742623574337   20.42158744955697
H        14.81391451331088    4.14628960701792   20.53009919142629
H        13.42599389433462    2.07832071780385   20.23616766664926

