44
CSD_code = WIXDUC | q = 0 | S = 0 | Stoichiometry = C20H17AuN3PS2 | MND = 2
Au        4.47669399083706    7.05223536399884    3.76894958485471
S         5.82684717653716    5.17373459678748    3.47672145883484
S         2.98274835133296    4.60567890903183    2.40314088374796
P         2.97501777048901    8.73554498948665    3.93537736356927
N         3.96716414702107    2.35692911275116    1.64661626732555
N         4.98289701592670    2.99147909763449    2.22522807333780
N         1.72342610047236    2.60711526848476    1.01550557738529
C         4.71671430447158    4.15191242629303    2.68496699799832
C         2.86654320841564    3.01624125641136    1.62972903346675
C         3.64843214711703   10.40819427155964    4.09220106687612
C         3.33711874667869   11.45060859617776    3.22765386818757
C         3.93485146217729   12.68645678025188    3.40656398843835
C         4.84180105433775   12.88242216114618    4.43471897236008
C         5.16594853650774   11.83794681751121    5.28811733593178
C         4.57828766290095   10.60066978840403    5.11351733144706
C         1.82090561141643    8.80356208542435    2.54093584242407
C         0.60045302411176    9.46705716858956    2.64592302853994
C        -0.25924970582661    9.49113073725064    1.56414697077534
C         0.08952806582764    8.85356146066960    0.38285651308107
C         1.30105200727786    8.19005755668300    0.27901812954351
C         2.16806792048979    8.16342009890657    1.35658337922645
C         1.86176396480163    8.55412485467012    5.35441817249160
C         1.29213112070351    7.29248636788658    5.51493455439383
C         0.42717612501981    7.05496290118103    6.56486654852380
C         0.13582242859857    8.07085584522365    7.46300453933287
C         0.70788151913120    9.32259738432931    7.30858139537928
C         1.57150292846695    9.57112719785700    6.25564762893368
H         0.85974938634283    2.97044103272421    1.38469918891958
H         1.71503336252240    1.62636899275950    0.78017340558981
H         2.63317278574709   11.29554033886505    2.42201313003392
H         3.69218251409323   13.49902013232997    2.73786549689311
H         5.30374915594658   13.84905106220808    4.56816552368055
H         5.88079454282536   11.98898451213567    6.08304546956016
H         4.82822159873956    9.76974062337249    5.76202956188949
H         0.33224381134554    9.95553725173729    3.57340684338243
H        -1.20613006852612   10.00490995732186    1.64219641810906
H        -0.58877206700008    8.87119520069584   -0.45713156888107
H         1.56879402829912    7.68801421837498   -0.63836245492938
H         3.11268448049545    7.63919323809565    1.29276466509299
H         1.54039648253242    6.50830532642437    4.81002205082119
H        -0.01535508811601    6.07812813808194    6.68947342865624
H        -0.53559640459261    7.88429556485486    8.28765383454612
H         0.48179125766017   10.11096663610838    8.01132180006415
H         2.01911353643950   10.54809467941277    6.13573870012806

