132
CSD_code = WIXDEN | q = 1 | S = 0 | Stoichiometry = C60H66ClP4Ru(1+) | MND = 7
Ru        9.73938342145723    6.28202528585294   12.53868298824906
P         8.20095114120446    5.77992336011366   10.79706355015739
P        10.97248438688216    4.49872811113280   11.65128772579677
P        10.74657855707827    6.20156632694551   14.69168536418313
P         8.41310079196061    7.95486399742730   13.49632175214339
Cl        8.52077105484425    4.62801315924005   13.71951094130247
C         9.00650176119881    4.51277506614546    9.73227072658312
H         8.24291671867587    3.99765733805430    9.14021124629753
H         9.66715233261016    5.06074955580641    9.05116736002587
C         9.81728118212333    3.54634856087622   10.57724725997639
H        10.38306130361053    2.84225151168448    9.95866256667325
H         9.15838568884855    2.97976308497948   11.24448733709878
C         9.72938604605206    7.26444406747298   15.79217115498353
H         8.86980644903577    6.66890317337397   16.12007206837541
H        10.32238961101433    7.51879662098349   16.67616879438895
C         9.25727764293010    8.49662823371378   15.03879033773874
H        10.11160376917328    9.11160762629014   14.73263920086553
H         8.57633722114621    9.09968895899559   15.64736740106811
C         6.52349258817358    5.08529816440319   11.18403529011652
H         6.66153878395221    4.33567152286297   11.96794901362133
H         5.95025652314790    5.92211149365929   11.59783695951971
C         5.81565073044670    4.49202576114374   10.00708729234117
C         6.01146884755662    3.15608555938793    9.67029815847432
H         6.65956730930902    2.54152131509791   10.27981834625678
C         5.36100650781837    2.60006592350997    8.58323236110495
H         5.52084781864783    1.56139489446924    8.33672367272737
C         4.50209518115206    3.37132511358948    7.81856050025736
H         3.99526805831600    2.93858168939980    6.97024247279606
C         4.28237942831600    4.69526404697364    8.15847573295562
H         3.59817683797637    5.29663459398126    7.57956560289945
C         4.93332903811280    5.25133980110024    9.24574045513556
H         4.73515668946876    6.27872459527830    9.51852710814819
C         7.75178901313476    7.03487105268101    9.51241404929116
H         7.02764381450569    6.54296537380723    8.85531840914444
H         7.25549198819318    7.86336814775124   10.02689098678131
C         8.92527680264269    7.51546040259494    8.71680302932398
C         9.23471073021755    6.91076906363560    7.50120383107035
H         8.59960083494600    6.12268562505844    7.12028407902094
C        10.33049970534393    7.32351796803591    6.76411314756282
H        10.55365058435859    6.84442473022090    5.82298757567166
C        11.13346184722499    8.35207349218339    7.22801951681983
H        11.98877809566993    8.67388023764553    6.65452495518577
C        10.82141239629787    8.97609444904192    8.42340345256092
H        11.42806217995159    9.79483189302442    8.78050144323085
C         9.72551790586719    8.56155353734257    9.16187157005605
H         9.48332695637115    9.06921416173108   10.08332237478220
C        11.66290220277592    3.13887174318544   12.69668880306269
H        12.49753604698823    3.56312840048618   13.26383414197615
H        10.85865510274063    2.87750854584571   13.39132059249338
C        12.07000187425076    1.91229427303242   11.93419630799019
C        11.15238795318698    0.88425279275678   11.73799249166896
H        10.15804684939942    0.96941798698125   12.15264027101790
C        11.50427026868779   -0.25689450628108   11.04109572734629
H        10.77928709439522   -1.04442144860094   10.90239260876871
C        12.78445105707928   -0.39326502446579   10.53125226165226
H        13.06046200980232   -1.28286728671630    9.98703864697746
C        13.71336645228397    0.61022240858500   10.74195058293412
H        14.72050960966112    0.50408583531508   10.36842869250107
C        13.35939039403603    1.75155789051561   11.44058650601958
H        14.10737514347185    2.50944061348809   11.62087994023201
C        12.34088031166456    4.90586913605819   10.48108579623340
H        12.85785798035448    3.97330366372830   10.23749379920785
H        11.87630118523883    5.30837089450600    9.57578535258257
C        13.26925616232562    5.92838882529460   11.06617539068782
C        14.31238316259022    5.56485979801708   11.91019205476419
H        14.48574230357385    4.52258427259074   12.13484781359760
C        15.15299890613335    6.52232501958488   12.45295290926627
H        15.96307237884867    6.22124769426406   13.10051583713791
C        14.95687551540363    7.86209707039269   12.16534707026356
H        15.61139455226170    8.60786925176916   12.58935126388534
C        13.92516642470054    8.23472850080452   11.32051519673678
H        13.77538903468327    9.27622180516101   11.07823885068950
C        13.09000709531480    7.27631049718360   10.77363844111348
H        12.30201721906312    7.57267741305483   10.09556679233766
C        11.02774723364891    4.69659985936554   15.74309349165858
H        10.69571679630261    3.82526491329610   15.17818068954055
H        12.10772780470197    4.63196129050002   15.89813403215963
C        10.31028535394226    4.71469249296024   17.06217972454722
C         9.08687207625166    4.07023049782531   17.20085097408582
H         8.64292249382382    3.57617051467700   16.34898247105088
C         8.44016382461737    4.04425338462591   18.42342921954419
H         7.50036246042043    3.52086826237631   18.51936618206016
C         9.00345458840715    4.67221480542177   19.52085454586094
H         8.50036733194033    4.65236201341477   20.47551316250226
C        10.22319759870908    5.31445324712120   19.39153923446558
H        10.67561837548045    5.79577041115107   20.24534549301077
C        10.87565502077932    5.33181738306588   18.17200063416503
H        11.83855318273621    5.81297408672068   18.08577519614239
C        12.40707315611326    7.03376967507338   14.69217089821045
H        13.00294670689365    6.47524126084150   13.96154800239128
H        12.24142654331583    8.03493861888691   14.28052104296693
C        13.11862004498995    7.11133964405843   16.00281406571061
C        14.06442077363624    6.15168893311175   16.35091278896186
H        14.30392430012567    5.35995866730131   15.65364145425375
C        14.72112773248001    6.21407704862425   17.56731432883875
H        15.45107181324267    5.46088041020014   17.82226294431866
C        14.44643854650275    7.24286511169601   18.45257690561928
H        14.95604131409049    7.29098949660820   19.40225452948314
C        13.52820454365618    8.21940774885660   18.10506575340743
H        13.32455311190048    9.03597590498694   18.78113549997536
C        12.87252269247354    8.15587314337352   16.88813777495530
H        12.17799530475221    8.93811342127603   16.61498363903489
C         6.68029052214277    7.53586226445901   14.03065878397059
H         6.01567715753836    8.18631152616405   13.45454456536102
H         6.50836361748318    6.49702889968846   13.73586736628281
C         6.40899203905297    7.67691670758373   15.49980762825976
C         6.06532129752897    8.90674652028003   16.04985039333793
H         5.97867149147784    9.77394986882137   15.41330773072562
C         5.81478216568371    9.02416169038230   17.40555253512806
H         5.54536157900171    9.98558667189572   17.81600269016172
C         5.90356298770497    7.91469566790073   18.22889648266907
H         5.70768609658853    8.00672055813375   19.28598518989788
C         6.23013412960439    6.68350575771210   17.68734299151816
H         6.28911854174463    5.81196253476609   18.32027870042984
C         6.48037601194817    6.56451102545657   16.33169417406971
H         6.71862099730864    5.59652685379123   15.91344338088435
C         8.23909189291870    9.55036425207465   12.57608560524004
H         9.26487191155171    9.89600663228633   12.40692011120589
H         7.79444757974442    9.29797482691522   11.60863874046917
C         7.41733740426660   10.60148650764848   13.25440114070433
C         7.97682385677694   11.44467178109529   14.20816503114986
H         9.02550354316092   11.35662703554203   14.45136638440927
C         7.20830047444311   12.41151167298497   14.83137698953795
H         7.65737825839044   13.05789607804372   15.56996072003587
C         5.86992173026735   12.55531052221489   14.50552922200707
H         5.27068430933025   13.30857836081435   14.99262207889593
C         5.30814486054768   11.73744619972776   13.54005606739687
H         4.27028024455147   11.85356783781048   13.26747967743268
C         6.07767654036956   10.76936762980797   12.91833682985566
H         5.63381968753732   10.14980991954639   12.15039434701276
H        10.06304032959284    7.10480635216540   11.29868591864727
H        10.89669744791094    7.26856088161990   12.49930053844461

