69
CSD_code = WIXHIV | q = 0 | S = 0 | Stoichiometry = C27H32Cl2N3O3PRu | MND = 9
Ru       -0.70390732927143   26.13442412274354    4.57200411980553
Cl       -1.12142837830588   27.65414225930446    2.82429652641439
Cl       -2.72313093814557   26.84549048529675    5.56223245334252
P        -2.25447880679887   24.79165969954999    3.53538420650698
N        -2.91495163318817   22.70258573046659    1.93688739135135
N        -3.87772790112774   22.63468801506520    4.16082890762091
N        -4.71637405852560   24.21978644606859    2.52533744746984
O        -1.87242095997167   25.46143896981016    0.78757954723315
O        -1.85579907270963   21.15183763629324   -3.75987099775157
O         4.44571599835782   25.03748275056931    1.10866886880185
C        -1.76890658049509   23.53889309074605    2.22436856732363
H        -1.00388971168068   22.89655500869512    2.68207245881567
C        -2.91036396440984   23.53772191158103    4.74863110643592
H        -2.07540608244510   22.94751839069306    5.14846932035476
H        -3.37906000569669   24.08673247084319    5.57440276784901
C        -3.91568600836808   25.35814317814751    2.91385489401759
H        -4.40713389840598   25.89729949499057    3.73191351497898
H        -3.79224618812509   26.03278940522070    2.06251326479775
C        -3.29222440961013   21.87762429797634    3.06713208024874
H        -2.41331265984485   21.33932209634125    3.43684836112071
H        -4.03366387694706   21.14943977871947    2.72296916743846
C        -5.03317121137290   23.36124988901050    3.64905104447903
H        -5.77380829184624   22.62453335844622    3.32207105473104
H        -5.45728771855375   23.96456840938182    4.45538309102380
C        -4.08011320333118   23.44436918714797    1.47467614941270
H        -4.80485437517392   22.71672306415640    1.09531736727166
H        -3.77993951015282   24.11230334695114    0.66776796037399
C        -1.18962910460694   24.24440388732919    0.96338179301006
C        -1.39453349642532   23.40575517090628   -0.29451882971673
C        -1.62854562909402   24.04976766348114   -1.49907731770352
H        -1.69764156067835   25.12575381635088   -1.51163845345235
C        -1.78972216198986   23.34155315245738   -2.67696988747895
H        -1.97496941957112   23.88498637714020   -3.58993174097494
C        -1.71050470575803   21.95505726263614   -2.66808599123417
C        -1.46345514494481   21.30358240250678   -1.45965122243220
H        -1.40281452495541   20.22668702723768   -1.46265286142140
C        -1.30602349500233   22.01807317029779   -0.29215596238366
H        -1.13178066501877   21.47930351344346    0.62424726998579
C        -2.12618124020889   21.75361347694934   -5.00215847200295
H        -2.21448662976077   20.93427434021684   -5.71407497758745
H        -1.31276948782130   22.41686022176696   -5.31381044349445
H        -3.06506153617971   22.31611832068834   -4.98016179016708
C         0.31787378363695   24.44336007521278    1.08004810127380
C         0.89823479296750   25.66817404424623    0.75659929548369
H         0.28280008608447   26.50709656769757    0.47409254570468
C         2.26732103308026   25.83115610415861    0.77560064235986
H         2.71283496733651   26.78117966240880    0.52709095742745
C         3.10922177397548   24.76879870348050    1.10629604767800
C         2.53966970244680   23.53665730559315    1.40925529048555
H         3.15406760204299   22.68365499893675    1.65248290275639
C         1.16314851076221   23.38528802733171    1.38737840946080
H         0.75953571095734   22.40643807016251    1.59656051043797
C         5.34240177074713   23.98708183097034    1.37301501397476
H         6.33750671963288   24.42197181414140    1.29495388811657
H         5.24244673459034   23.17929808433619    0.64143390417532
H         5.20512235194472   23.58280527372122    2.38178861438952
C         0.83874806041643   24.54994194162770    5.02818735163548
H         0.91289288604608   23.50532526867657    4.74285290688838
C         1.48853834068939   25.52858544725560    4.24804861340541
H         2.04463937080208   25.24525805249731    3.36519080123102
C         1.44671621151858   26.87812438590032    4.65462496432000
H         1.95791013314749   27.62733040698860    4.05895693890264
C         0.82924007318600   27.24567178045203    5.86580039785186
H         0.86175343226080   28.27245502817942    6.20945244485431
C         0.20483927427814   26.25436172235604    6.64933223863943
H        -0.24842263289339   26.52595084462942    7.59670540492304
C         0.21639742862468   24.90514799828846    6.24898356849697
H        -0.19954770077464   24.14260236431626    6.89694680437268
H        -1.49040083938054   26.16137189881854    1.35598968630937

