116
CSD_code = WIXKOE | q = 0 | S = 0 | Stoichiometry = C47H65LaN2O | MND = 7
La       -2.39950735896413    3.58311532126229   14.41190095777172
O        -2.69352382145544    6.09815732807886   15.61958068923846
N         0.12849434120838    3.66258487142033   14.66223462097625
N        -0.68758263827338    1.61854244889299   14.54406723568682
C         0.91093391314209    4.71540627383152   15.11820082052153
C         1.24703280557129    4.81267309488758   16.49084987089320
C         1.89743095668517    5.94502478414806   16.94994948114697
C         2.22518630297788    6.98301385431331   16.09486873360490
C         1.86145122825928    6.90762563124110   14.76489160882700
C         1.20077085697797    5.79688519770214   14.26276185399617
C         0.82615239954737    3.72413122631522   17.45588529979204
C         1.83069261310743    3.49598231956542   18.58608487686843
C        -0.55191349810763    4.05351963099867   18.04154398366609
C         0.72355122120314    5.79308065312430   12.82622444610783
C        -0.44956721618010    6.76930582997642   12.68282600710172
C         1.83078890013601    6.15836004365680   11.83468867484644
C         0.39834400270639    2.36159523548514   14.55191886355793
C         1.82564660328486    1.86210321428750   14.23800078123304
C         2.86645687083649    2.28414372583762   15.28216223279148
C         2.21186736112217    2.50318355459755   12.89479244659706
C         1.94013219295266    0.34301142022267   14.08037064532464
C        -0.86370707905915    0.24092368142447   14.43441602218724
C        -1.12235405947202   -0.35461905863818   13.18532382730454
C        -1.33908748815627   -1.72101913999528   13.11676655884970
C        -1.31420083274703   -2.50632695347227   14.25390542468990
C        -1.14205210521366   -1.90916617725402   15.48778567943433
C        -0.94450697296116   -0.54233205826602   15.60230197170542
C        -1.24212219760750    0.49336880341955   11.93783646481491
C        -0.37577733386165   -0.01088102804715   10.78247179627484
C        -2.71535284917729    0.53872490757582   11.51631129760513
C        -0.86019123994741    0.09894757405872   16.97088265368573
C         0.45496762028433   -0.23735830341161   17.67752724807957
C        -2.03837464615339   -0.32762611976941   17.85196594318490
C        -4.27321919367102    2.29301853547230   15.48509430908124
C        -4.77649327648970    3.10314297313630   16.59647925061567
C        -5.91332509440826    3.91668531715079   16.45791261344066
C        -6.38122665833954    4.67804892416174   17.50972856002617
C        -5.73641357177722    4.65614008301056   18.73779890682917
C        -4.61889338661371    3.84988952182587   18.90072404212860
C        -4.14993174200795    3.08459273453967   17.85426393047276
C        -3.33707126078678    4.32285679093482   12.16684926298419
C        -4.48870557786291    5.20269643722183   12.41213604665569
C        -5.75744134861598    4.66829927478373   12.68997135873445
C        -6.84350913674843    5.48315397711461   12.92922697762815
C        -6.70973813342098    6.86315449852191   12.88914680992348
C        -5.47352771271498    7.41215964559002   12.59014542531547
C        -4.38279855318568    6.59923437283947   12.35181139435433
C        -3.96295840318033    6.73714193167317   15.76902818914752
C        -3.95217833382461    7.39643594785530   17.15702892272157
C        -2.46110405187302    7.43722519378400   17.52890617020959
C        -1.77293988080706    6.99649692251491   16.23543097641681
H         2.15049023194687    6.02909794436784   17.99554512646206
H         2.74419547413637    7.85188832762831   16.47105369074976
H         2.09262190853313    7.73254697684422   14.10769544357146
H         0.73131071149570    2.79081681745415   16.89617140784013
H         2.84298136820178    3.41896657948912   18.19634861787421
H         1.59234298793839    2.57259114170890   19.11005878811721
H         1.80022154183427    4.30588140945197   19.31125270066990
H        -0.85407717836275    3.27928067354060   18.74454403674243
H        -1.30660509617120    4.11581007633463   17.24900580617868
H        -0.51990009901890    5.00404062891649   18.57226804480336
H         0.35675369098455    4.78640184490574   12.58578997210941
H        -1.27270586885385    6.46689393997854   13.33400881320301
H        -0.80043506787778    6.78666815636329   11.65209082236450
H        -0.14100068576941    7.77712440316621   12.95587904751262
H         2.11205956426790    7.20418643618773   11.93095460338263
H         1.48637171379893    5.99500922957653   10.81544178733105
H         2.71955357101281    5.55262087895877   11.99671554334612
H         2.68055910517120    1.80079333031445   16.23786853641578
H         2.88297527624723    3.35957778530537   15.42649795201619
H         3.85343979444709    1.97672460274319   14.93884299933156
H         2.32880346274181    3.57559684264993   13.00850657281126
H         1.45462641613318    2.30788504759802   12.13806661637269
H         3.15745263417878    2.08963566852777   12.54830524148236
H         2.98289000500963    0.09025585374857   13.88948030002473
H         1.34913784309024   -0.01997013981417   13.24671444931301
H         1.62551954707050   -0.18354659172686   14.97572455635669
H        -1.52815494789099   -2.18476758853203   12.15996579547010
H        -1.45728199763776   -3.57422340005606   14.18100709816073
H        -1.16729784770834   -2.52063107052088   16.37751626429847
H        -0.92697137937440    1.51708829416940   12.18199847920601
H         0.66913832325102   -0.07864883121533   11.07785251406918
H        -0.44913925331076    0.67212461365841    9.93816101857582
H        -0.69944060665448   -0.99394965756506   10.45051034028258
H        -3.06661546597874   -0.45844788382259   11.26024032463786
H        -2.84353624678610    1.18221762570391   10.64783804513377
H        -3.32833126878177    0.91955843405919   12.33566467706827
H        -0.91948019458919    1.18599755494132   16.83192816828238
H         0.57482604185602   -1.31515718681479   17.76682820984691
H         0.46611359373997    0.19260109017017   18.67768423887682
H         1.30676442144121    0.15542947038819   17.12794193606527
H        -2.98214711776877   -0.18461985250034   17.33077646610954
H        -2.05483394801515    0.26203757707215   18.76714047177913
H        -1.96017886045318   -1.37511390110473   18.13205856001793
H        -5.07288106052613    2.07746409891333   14.76789935991984
H        -3.84575558946407    1.34904722961810   15.84470760058663
H        -6.43064397197824    3.94091641898533   15.50736986735622
H        -7.26034070391663    5.29326438367731   17.37519338607850
H        -6.10896861654058    5.24839415920743   19.56094795258422
H        -4.11724592150256    3.81512224910713   19.85837186896302
H        -3.28911274950705    2.44309059232757   17.99942073639246
H        -2.58103115046616    4.83577630957280   11.55988744085870
H        -3.66630297100155    3.42376163547098   11.63206375469389
H        -5.87881698631738    3.59123336062394   12.70793864671436
H        -7.80905687432173    5.04375538252120   13.13924164064177
H        -7.56107418037218    7.50099367736617   13.07388097687725
H        -5.36343529211402    8.48686084875996   12.53216486355473
H        -3.42843892435356    7.04749252512176   12.10731554730845
H        -4.74195301077240    5.98239094092965   15.65735915294769
H        -4.07856532082823    7.49168715435052   14.98056338848401
H        -4.39082554066760    8.39112146902828   17.11544727479594
H        -4.51728679557268    6.79707359003613   17.86833944682150
H        -2.13063850438253    8.42389353858424   17.84397356229483
H        -2.25061661740183    6.72612240148685   18.32627943518087
H        -1.61197547388368    7.86086137533567   15.57614172724037
H        -0.82555337799485    6.48074863695211   16.38646612035548

