38
CSD_code = WIXLUK | q = 0 | S = 0 | Stoichiometry = C18H13FeO5P | MND = 5
Fe        8.46843233746012    2.72906073280267    2.58574636540197
P         6.62027608586705    1.97098714100592    3.47803797943215
O         8.66264343529665    5.05166194140624    4.37615264497070
O        10.79280770727311    3.65655680771384    1.11645334262752
O         6.90860656880691    2.80620507717448    0.10125316349448
O         9.95782481538951    0.32741815230019    3.39131019973825
O         6.30670536776115    0.15911120202321    5.47191837160738
C         8.56210560545953    4.13455857601434    3.69015179761689
C         9.87939405125920    3.28995463539694    1.70589847824067
C         7.52930917052942    2.78477450250390    1.06829884339885
C         9.34981843653378    1.25179504113730    3.08317767581230
C         6.71996124217808    1.25683769671272    5.22437560891118
C         7.33705752309276    2.19436702945591    6.21325506607668
C         5.80448434942495    0.59769896142316    2.61037777301930
C         6.40028037186409   -0.66084897970472    2.64976449942299
C         5.82811779772633   -1.71426896374401    1.96222660654087
C         4.67744654814744   -1.51397922453910    1.21616038526268
C         4.09907917792180   -0.25697050373320    1.15391269563152
C         4.65865923258032    0.80115934511257    1.84688986558407
C         5.21896904361221    3.09542896596338    3.79367981392520
C         5.23561890169189    4.40334273920660    3.32493384456640
C         4.15504288771359    5.23546842762383    3.56314805109876
C         3.06082442900091    4.76611282442280    4.27019296601560
C         3.04015924989573    3.45969960932881    4.73660752747510
C         4.11262266937521    2.62162054648492    4.50035988619264
H         7.11107946298733    1.88702559639793    7.23215433096300
H         8.41841691170299    2.17787154343763    6.06771496098218
H         6.99077671434716    3.21222427528065    6.03137467171925
H         7.30483193595600   -0.81077005960553    3.22329193883166
H         6.28302212716450   -2.69273382446623    2.00361639184198
H         4.23454199576353   -2.33787463513805    0.67652605016488
H         3.20941285256409   -0.09815969325223    0.56242307583186
H         4.20919871008162    1.78400714430805    1.79422866761242
H         6.09483797073411    4.75964974709470    2.77003151343568
H         4.16860561826881    6.25052657081325    3.19512192933930
H         2.21994568768140    5.41720708113558    4.45668047829217
H         2.18438285802358    3.09430260942486    5.28447300108808
H         4.09630014886440    1.59837136107579    4.85087953783234

