66
CSD_code = WIXMOF | q = 0 | S = 0 | Stoichiometry = C37H23CrNO4 | MND = 9
Cr       -1.44083279857415   16.29929121634115    8.62371246045320
O         0.44505790537839   12.57320686915912    9.70638061667614
O         1.45116082558496   16.40298108348793    9.29396502719911
O        -0.18610561046232   17.91633338594431    6.46851356612515
O        -1.19297006414727   18.94645307059536    9.96219975151697
N         1.49227421269991   13.62734534508246    7.96909555415080
C         1.18354356590996   13.92873200798526    6.64107759238464
C         2.82356306194105   13.72633394478926    8.54796531358083
C         3.68930698688460   12.76181443098763    7.90581017887714
C         4.18932411128286   11.85094828263136    7.28017965379090
C         4.41761694820797   10.70524278675357    6.61231036236147
C         4.16192915658300    9.63669554733419    6.06648627335937
C         3.34826660678299    8.65284795160662    5.66087674003916
C         2.24761843939171    8.11892675917920    5.54674213225068
C         0.91191614859354    8.10395219770509    5.72567913718862
C        -0.18906192213596    8.47535218896664    6.07923714080664
C        -1.23809325963055    9.31719275787706    6.61260727187214
C        -0.52858227245582   10.63027461544224    7.00649798108839
C        -1.46227529322417   11.71604755047365    7.53558581420725
C        -0.08768776325084   13.59192145930423    6.34465884328694
C        -0.75378088269218   13.08447243553904    7.61290580787336
C         0.44134805792900   13.03083946870096    8.58329260827373
C         0.31895697442044   16.29864368786321    9.06649307096177
C        -0.72632520413150   17.27541276133038    7.26745088612908
C        -1.33596823020672   17.91288564502640    9.46611306107431
C         2.21216934210705   14.47657571103218    5.75027184837820
C         2.65181643038272   13.73322467939950    4.66030885435370
C         3.62523128708703   14.24375108487211    3.82204871859184
C         4.16147483828513   15.49804499393724    4.06165461466626
C         3.71906523858187   16.24512178830415    5.14054598776936
C         2.74883281108172   15.73897648707093    5.98604043902611
C        -0.69751032938999   13.82400975197600    5.03334070833323
C        -1.47063935872972   12.86821810147481    4.37480653649147
C        -2.00535751249263   13.13008351206137    3.12605412389949
C        -1.77940745834443   14.34683033101289    2.50693886981651
C        -1.00974331856677   15.30404286263635    3.14825569855107
C        -0.47506983178415   15.04819358996117    4.39534985196493
C        -1.74406899535651   14.11139730705691    8.15064702520345
C        -1.92422821758562   14.27890298413550    9.54224212157116
C        -2.85979348057122   15.18323738199886   10.04118403146664
C        -3.63864253894131   15.95197047085459    9.15554319888902
C        -3.50672715111166   15.76420212480043    7.78179339572132
C        -2.54907339007470   14.86091805563584    7.28277187557386
H         3.19845419823927   14.74808392551481    8.43951813080098
H         2.71944234809663   13.49053978027112    9.61291343404843
H         2.23464623263026   12.75264361790417    4.48384046785442
H         3.96688537258667   13.66014703206509    2.98024108014435
H         4.92173414513981   15.89480146027826    3.40541440970369
H         4.12738199092174   17.22753389681723    5.32404814200352
H         2.38388306766790   16.33239659906695    6.81227622047820
H        -2.01118977530517    9.50123667679820    5.86053332359678
H        -1.70692993258373    8.85166099145748    7.48314809892109
H         0.00657356771050   11.00447501315786    6.12980032151968
H         0.22577753666039   10.40509783260450    7.76318123428634
H        -2.34745395786049   11.81170316751923    6.90118008216005
H        -1.79711305704519   11.45332031741371    8.54251109903533
H        -1.64208217955264   11.90333872602573    4.82203013672431
H        -2.59828250993610   12.37378541622032    2.63206233460265
H        -2.19892254723236   14.54684793853765    1.53241923668267
H        -0.82811421605084   16.25851877664799    2.67770453978799
H         0.10397010905507   15.80693534678527    4.89685284717002
H        -1.37561560457362   13.64651965570049   10.23019113018271
H        -3.02706223205671   15.25416085762005   11.10886667937432
H        -4.40392700338886   16.61272066162392    9.54542136673836
H        -4.16525556040621   16.27716057453621    7.09136910150977
H        -2.50632805797494   14.68762306709324    6.21514183686404

