54
CSD_code = WIXMAT | q = 0 | S = 0 | Stoichiometry = C16H31ClIrO2P3 | MND = 6
Ir        6.76009456023471    2.96189267398061    2.54137289828792
P         7.16221803489667    0.66747004182673    2.43759637363418
P         4.59020382412761    2.96171362420625    1.72497831759436
Cl        7.61264436162673    2.96186320820875    0.25722813555409
C         4.39823737634700    2.96166711725033   -0.09201309943239
C         3.48811647339718    1.55719928610864    2.16743762402315
H         3.88218169887214    0.63699278908953    1.74434627527491
H         2.48809433277874    1.73287311556852    1.77264505116309
H         3.43834967738398    1.44635187510555    3.24717556104764
C         6.55720712650920   -0.41929193888698    3.78667602204613
H         6.95041656373881   -0.04961936974006    4.73172178901473
H         6.89383922218887   -1.44273163820965    3.62797731845120
H         5.47093309146921   -0.39274107280002    3.83136773526528
C         8.94046260577739    0.27681037979727    2.41644334340815
H         9.40155680529631    0.84663090204243    1.61128740261915
H         9.08027239599350   -0.79180274048147    2.24876429135602
H         9.40459293805996    0.57235191627674    3.35462120009738
C         6.63668844998248   -0.23640459384992    0.93142697050801
H         5.55406544545381   -0.28803797644353    0.85333617189474
H         7.04460099014193   -1.24637989333526    0.95015707349446
H         7.02943210969202    0.30205700592608    0.07054308217882
O         8.67683668927660    2.96168194267138    3.32393613916061
C         6.31679612804969    2.96167345812789    4.54185037016298
O         9.85486078627853    2.96161141701421    5.19319738928117
C         7.47025194201056    2.96167040754209    5.33377795588718
C         8.78141573440636    2.96160892162813    4.61026269579899
C         7.41034544356141    2.96168559764333    6.72010251240847
H         8.33871076435430    2.96159064241552    7.27309707226453
C         5.09695299358785    2.96176366689554    5.20247071617570
H         4.17165901808374    2.96190635874183    4.64260733196855
C         5.02778698002234    2.96180465232504    6.58813811530971
H         4.06021329611211    2.96182026147531    7.07227329234361
C         6.18231817272662    2.96173833849126    7.35305935954753
H         6.12049351129385    2.96167344218491    8.43173693124051
H         4.89627058797944    2.08520794626191   -0.49949136778340
H         3.34366483923603    2.96168979992074   -0.36635117503476
C         3.48814648143625    4.36630806999469    2.16728579818094
H         3.88223433108182    5.28649628081311    1.74417034656822
H         2.48813069020181    4.19064181294846    1.77247046274194
H         3.43833258036054    4.47721932826949    3.24701415802980
H         4.89634485380456    3.83803880751387   -0.49959402298006
P         7.16222837300116    5.25609220367356    2.43752344865831
C         6.55716851528464    6.34284911299036    3.78657899385227
H         6.95028310168239    5.97310134490431    4.73163196619340
H         6.89387925171830    7.36627624158678    3.62796360977997
H         5.47089038611885    6.31636033131613    3.83119422239045
C         8.94045516710474    5.64679817058114    2.41641957932143
H         9.40160227182641    5.07696187971698    1.61131070140393
H         9.08025823576064    6.71541186599442    2.24872449806915
H         9.40452564324555    5.35127648227034    3.35463204677306
C         6.63672549708873    6.15996481980835    0.93134952081402
H         5.55410595892633    6.21140457951435    0.85311980877850
H         7.04445437536121    7.17001369119445    0.95015616313517
H         7.02964931504890    5.62159341192651    0.07049182207823

