41
CSD_code = WIXPEB | q = 0 | S = 0 | Stoichiometry = C16H14Br2ClN2O5V | MND = 6
V         1.15662982772715   -1.02078455962231    7.69268069012345
Br       -2.36976243325762    5.19969034278653    5.87368924278846
Br       -0.59712280840076    2.09913528353587   10.30510737002498
Cl        1.36775116899464   -4.40210931370142    6.98647971223306
N         1.29080100442850   -0.15368705044278    5.79441568282587
N         1.83882978024487   -1.01421254001863    4.92320342193944
O         0.64865976747612    0.56610618656757    8.15840256911072
O         2.48517160372495   -1.95129275834159    6.85979618220345
O        -0.11640707830279   -1.71828786774461    7.22778717606807
O         1.62485263308319   -1.55776363716199    9.15297404961574
O         3.45015994666876    0.40250429335261    7.97060211460314
C        -0.03794365493937    1.76929758149203    6.22284344528485
C        -0.00135139689097    1.54049354878063    7.62592219390070
C        -0.69601150655433    2.44896190668789    8.45071481508366
C        -1.39384959815505    3.52430945450786    7.95626136562067
H        -1.91232801313208    4.19905945665908    8.61968128915646
C        -1.41182280545344    3.71776223588458    6.57696651455141
C        -0.75021744917338    2.86550563939315    5.72118616809426
H        -0.77755570774105    3.03507840698833    4.65534637909896
C         0.65300896001823    0.87092668543138    5.34881864228647
H         0.60317419244553    1.04072812055972    4.27200437066000
C         2.36171766058396   -2.01189706817552    5.59166519095496
C         2.69308231781003   -3.27567368847413    4.90950283221882
C         2.27183614480302   -4.46587607143148    5.51390150886987
C         2.52790339186134   -5.68269315084522    4.90066574601115
H         2.19193989584463   -6.59173339138882    5.37187122615681
C         3.20487685341612   -5.71369182188905    3.69346261423804
H         3.40863754268060   -6.66363693447455    3.22314631510060
C         3.60956180646090   -4.53676220894038    3.08194706205076
H         4.12503578199876   -4.56840319432933    2.13447430024544
C         3.34750856878364   -3.32023228169917    3.68395724322749
H         3.64696082421234   -2.39172003640054    3.22439518078575
C         1.48585263070306   -2.40836022900919   10.20989151758795
H         0.57201524567717   -3.01147424287181   10.09109637027710
H         1.42048093355650   -1.83399662320233   11.14625563559733
H         2.35940203461972   -3.07789141435556   10.26868412427049
C         3.43296592327329    1.43589207341135    8.93662117982711
H         2.96716608901534    2.30168839982605    8.46637893601653
H         4.45107244383296    1.70323155914334    9.23944517163496
H         2.85181659729316    1.15342389417643    9.82095274126078
H         3.92800088076220   -0.34991498466354    8.34320170838949

