31
CSD_code = WIXREC | q = 0 | S = 0 | Stoichiometry = C9H12Cl3N4ORhS | MND = 6
C        15.08826960105027    4.03696976843096   -2.28334429633347
H        14.25289846495436    3.37744559979677   -2.42772140214957
C        15.83628731259750    4.75599415041626   -3.23464866641795
H        15.68633698643770    4.76098181268101   -4.29413197030397
C        16.78461919552741    5.43938609285522   -2.52325834691947
H        17.56653881458588    6.10785718170482   -2.81937182557238
C        17.26213184127069    5.53688889899818   -0.08616602943056
C        18.88925983108155    6.73605814137331    0.90197350192656
H        19.71604037502442    7.41976852832664    0.77243179989398
C        18.49146423394999    6.26824679445998    2.14588660407448
H        18.99160473708417    6.56630573639128    3.05117512883103
C        17.41488538777481    5.39365968517465    2.18375440796127
H        17.02808022867105    4.97310493087117    3.10627466904295
C        14.78633588807029    1.38194503881807    3.18997782497691
H        14.54562275429548    1.20322547847405    4.23141473356631
H        15.78586009490655    1.02701016407474    2.96097753419344
H        14.06639896220144    0.92799058635645    2.51888310526163
C        13.06127181266106    3.51597937626169    3.43327307663231
H        12.90659869189923    4.58784462862638    3.36516656157963
H        12.95155063120412    3.17751611736388    4.45695613398576
H        12.39141998629208    2.99844480587079    2.75634275737660
Cl       13.82576951288327    5.62951925889904    1.01837332209792
Cl       13.45612245888218    2.41709094568104    0.31632881652398
Cl       16.72991353928447    2.02902742189830    0.60411676112932
N        15.56280390660890    4.27838009985133   -1.08318063795149
N        16.59125579028342    5.12733643014472   -1.21725758367117
N        18.27336264254023    6.36913050381740   -0.21194050502526
N        16.79840543897736    5.02668461346943    1.06565649675705
O        15.63205726795301    3.76052212980427    3.91711022270927
Rh       15.19507658456036    3.76430158426848    0.79479073312103
S        14.75965702639308    3.17028349478022    2.91075707217893

