55
CSD_code = WIXSUR | q = 0 | S = 0 | Stoichiometry = C24H26Cl2P2Pt | MND = 4
Pt       13.81890753740831    8.69780762594346    6.06320029968522
Cl       12.07637686181954    9.38168737896574    4.79524368544427
Cl       15.17616691857046   10.25513179386133    5.12295401165518
P        15.54003563370279    7.78345044067686    7.23935929429115
P        12.63751377246997    7.16912913102304    7.27786633132692
C        15.70130690824735    7.37369486680391    9.06258763832937
H        16.00709011179395    8.17427368826982    9.73441129585826
C        16.65324067131239    6.20137698062138    8.98842358040895
C        16.30374135054265    5.39007333407381    7.98423670712069
C        15.13950656310817    5.96557953304855    7.22357942729135
H        14.94317703491584    5.50182169955042    6.25485560903944
C        13.87718728428506    6.05044191222625    8.10843468313471
H        13.44909318801554    5.06360024367943    8.31034645422552
C        14.29687703004046    6.78917113324658    9.40718976883052
C        13.28542690257760    7.87254217478214    9.71231816148526
C        12.32980918333833    8.06223973677169    8.79961260066120
H        11.54566269032977    8.80046375358421    8.87184699648816
C        13.36274361918159    8.61768118791851   11.00346900358043
H        14.38144646754748    8.94627531554888   11.20074947968463
H        13.04957791319911    7.98337457557760   11.83251821484506
H        12.71452594742520    9.48926362016014   10.97480492825509
C        14.37577476662876    5.82754556346649   10.59897768958452
H        14.95070560526815    4.94198577956157   10.34305793615889
H        13.37319404898737    5.51564096001052   10.88636454090295
H        14.84830412618478    6.30778653062119   11.45199778613709
C        17.74980971312377    6.00961738627826    9.98406300846206
H        17.65471861183732    6.71783964447295   10.80307145072999
H        18.71974979413357    6.16232304334987    9.51053712019371
H        17.73404785516537    5.00175388728642   10.39632869402856
C        16.91384711049618    4.09516578797712    7.57694033923381
H        16.15151673835994    3.31775879248547    7.52270610123257
H        17.68630938789200    3.78704283490470    8.27573866103084
H        17.35920529083988    4.19212284714813    6.58664726333054
C        17.22199771642028    7.94648961988140    6.61537942653046
C        17.40604048519346    7.64048209756588    5.26959714647247
H        16.55494270432478    7.31592123288816    4.68297630655003
C        18.65531093324640    7.77658643786681    4.69698420702364
H        18.80128942452920    7.53998591504343    3.65366720199762
C        19.71842035802786    8.23335398846049    5.46106054449124
H        20.69375838757256    8.34803745683609    5.01175933047923
C        19.53069621351431    8.56089280726153    6.79356991883342
H        20.35853379769206    8.93304721446604    7.37949665017320
C        18.28227194849352    8.42419519587283    7.37465048929782
H        18.12934043977506    8.69533807839149    8.40907525870536
C        11.15524812172063    6.19500696903887    6.91092568492916
C        10.64642370593617    6.20324686272904    5.61765643606519
H        11.13349022266161    6.80670161219744    4.86386409660021
C         9.51253471777105    5.46458355255616    5.32652129271110
H         9.10874240131921    5.47078149230293    4.32537925402757
C         8.89479130384283    4.72218463294613    6.31941451723375
H         8.01001183694253    4.14639946069395    6.09110696105062
C         9.40150949282173    4.71951238426299    7.61099373440737
H         8.91014108863612    4.14507068152695    8.38283658390045
C        10.53075007474789    5.45640911641403    7.91192074197934
H        10.92875798607777    5.47311000690094    8.91792545389331

