40
CSD_code = WIXYAF | q = 0 | S = 0 | Stoichiometry = C11H18Cl2N4O2RuS2 | MND = 6
Ru        7.47875214301620    2.56184440634650    2.56827684755123
Cl        6.56284081624889    0.40220672891008    2.62119724772511
Cl        8.35654231152881    4.73879529806253    2.52479625040682
S         6.61902557127749    2.86664548944509    0.43139267447265
S         5.51804014795959    3.38416725911049    3.39697511764119
O         7.51344099708065    2.45487894200364   -0.64969152418737
O         4.56378045758982    3.79219171352601    2.37224076182827
N         8.32349421189039    2.26558076072522    4.38882248172795
N         9.55612963770046    1.75012830345138    4.30223452867579
N         9.28091859690551    1.79963808576863    2.01984999811629
N        11.29699556211986    0.98413114806953    2.99530434500458
C        10.10823896842893    1.56914641911956    5.52790471565713
H        11.09285217969243    1.16399870973294    5.63230359332526
C         9.17755589730772    1.99280722837803    6.43723582648771
H         9.26170066546915    2.00089115853783    7.50394331582865
C         8.07693927210820    2.42057943921711    5.67636120152194
H         7.15173232017020    2.82525259337101    6.03355989182408
C        10.08585179151528    1.49180253247851    3.05723507910055
C        11.79157203554573    0.74373781465279    1.78919075119585
H        12.78773575378170    0.32736002150464    1.76460912952372
C        11.05577554009526    1.01837998540636    0.64594495848239
H        11.44420715691258    0.82800919744598   -0.33966634079638
C         9.78761505049198    1.55275733069142    0.80880647764821
H         9.15057000235332    1.79403565726255   -0.03592788942278
C         5.06050136027520    2.01327953674722    0.06414844550149
H         4.89253835184625    2.09902874530643   -1.00291220303240
H         4.26900254731439    2.47217982268384    0.64232291395427
H         5.19274458658343    0.97367728735983    0.34829446555366
C         6.14678915544495    4.56221355458807   -0.00724243102867
H         7.00339992113065    5.19537861096545    0.20261657953129
H         5.29844955864580    4.85294463822799    0.59865751498168
H         5.91724501831121    4.56823799092697   -1.06620153742266
C         4.57349363061695    2.27345613627485    4.48587624416109
H         3.65397340916828    2.77472901662407    4.76493328246208
H         5.16975561993703    2.00857591780950    5.34951583993632
H         4.36475512585279    1.38048540152936    3.90440798051514
C         5.63779885622130    4.83073924952122    4.49988060680873
H         6.41740883655814    5.46867333114565    4.09173077671320
H         5.89030811138623    4.52732114474222    5.50711789214723
H         4.67812882351927    5.33351339232961    4.46855418988092

