40
CSD_code = WIXYEJ | q = 0 | S = 0 | Stoichiometry = C11H18Cl2N4O2RuS2 | MND = 6
Ru        3.48120047606980    5.83953338795701    2.50414335155031
Cl        2.63955996582822    7.63913076897859    3.76856952735390
Cl        5.11588850842575    7.11892310151553    1.45437106489264
S         2.04843127095992    6.31583434172653    0.80971307985464
S         4.32273248604732    4.15570186315085    1.24115615086658
O         1.21812093708783    5.14021481366889    0.57354586788440
O         4.18010966009771    4.26660633013517   -0.19354129830724
N         2.19017885006795    4.72526479857858    3.55092914863977
N         2.61518917547176    4.50829267301723    4.80923769218101
N         4.57713963194363    5.48436970237587    4.14152559146114
N         4.30097078200134    4.76153485394606    6.39068154760663
C         1.65374988023630    3.89159467436319    5.54754310236459
H         1.81964305659908    3.65035855712186    6.57668119574584
C         0.58188581265282    3.71267220139198    4.71620298000323
H        -0.35818224465117    3.26058005669224    4.95482451707837
C         0.96424913436683    4.25654103452274    3.47475982010121
H         0.41807548342548    4.31825459201664    2.55259192341931
C         3.87685739454459    4.93251332959776    5.15694843846636
C         5.50930896790796    5.22439676854399    6.68080127793879
H         5.83022705254520    5.08290099256660    7.70216155165511
C         6.29623175979317    5.85933829455032    5.72789969360085
H         7.26446594790823    6.26207181623237    5.97028983094742
C         5.78380685990035    5.96783421889114    4.44592762921563
H         6.31070895230724    6.46141842062965    3.63684742227512
C         2.69266853245940    6.85953164362719   -0.79254964359582
H         3.34999277258104    6.07387342413820   -1.15231727262321
H         3.25039444242008    7.77498425369063   -0.63045636335997
H         1.85695677103682    7.00383622035595   -1.46677835234664
C         0.91120890018241    7.70265419028636    1.09980856591380
H         0.21013176781162    7.75451147559713    0.27457304215005
H         1.50746348877439    8.60418494143096    1.18397997730331
H         0.39477129617389    7.51878507870213    2.03661102552343
C         3.68521914320415    2.50381122219419    1.68943432425472
H         2.62152958276861    2.52011842430462    1.47443525367357
H         3.86261301682454    2.33342990298776    2.74630784077722
H         4.17664535768620    1.75522646392720    1.07933418542064
C         6.09025084541643    3.83976596825831    1.55810338595684
H         6.43071449080772    3.05605705460870    0.89190912200424
H         6.21465889283005    3.56425749701544    2.60008490609764
H         6.60523089748504    4.77119064669772    1.34060889605683

