22
CSD_code = WIYCIS | q = -1 | S = 0 | Stoichiometry = C4H8Cl3N2O4Ru(1-) | MND = 6
Ru       -0.12998052140321    7.76529906061282   10.78313832802012
Cl        1.10487172231622    6.83107956576489   12.49298906412128
Cl       -1.43607328438815    9.03222067416017   12.30654521814296
Cl        0.83617645919253    6.35490444753998    9.14541245870334
O        -1.51537538882180    6.30660140459331   10.97994901773373
O        -3.38296220607250    5.43034709069960   10.15359853597922
O         1.59396071716751    9.93074214424288   10.23932054043594
O        -3.39546666760098    6.64220948104472    7.54978011102136
H        -3.31222492014709    5.79611328351188    8.01444151378531
N         0.92432210426421    9.01848885499578   10.49998639797654
N        -1.58425647893921    8.26042294329194    9.20510298215557
H        -1.65202023536522    9.25261878794436    8.98051267423815
H        -1.29261722269953    7.74299012314980    8.36455255727276
C        -2.87786877816876    7.73684236953319    9.64679034537655
H        -3.28245777907776    8.39813188239255   10.42357349193244
C        -2.58984614022476    6.34140544787475   10.32141013402546
C        -3.88264214670905    7.57151421821852    8.49137361150764
H        -4.81930889127071    7.19945867804997    8.93471433108506
C        -4.15117442322490    8.88801014371578    7.76742123998432
H        -3.26506598745562    9.20529010934654    7.22244858756094
H        -4.44069814696946    9.65737626417936    8.47851654997130
H        -4.95269178440171    8.74783302513744    7.04732230897028

