22
CSD_code = WIYCAK | q = -1 | S = 0 | Stoichiometry = C5H8Cl3N2O3Ru(1-) | MND = 6
Ru        6.36212405978150    9.98191150461618   18.62726473067175
Cl        7.64462261783149    8.99918713397553   20.27941749986161
Cl        7.90553952515918    9.30107976263487   16.96452799508989
Cl        4.87334751724291   10.99880633031338   20.18986698861246
O         7.44788688478352   11.64103237406443   18.75402111870408
O         7.88888458815118   13.69632542226804   18.04123444965548
O         4.61635735532642    7.82413718774441   18.10756680417815
N         5.30734148033798   11.30261371180523   17.20949376279170
H         4.37519525502563   11.28730083272177   17.62784344824335
N         5.37113298432297    8.66979849416454   18.37869012833396
C         5.26174389792457   10.89749838605824   15.79329583832340
H         5.49812880357864    9.83644722059436   15.68835593107804
H         4.26351065229447   11.09218046536112   15.38018595326682
C         6.30378669229152   11.78479319089458   15.12226722539855
H         6.16249372244366   11.84923348279379   14.04514448219198
H         7.29656610884254   11.38563761210330   15.33390616781695
C         6.10021720558540   13.11471804131599   15.84004857301469
H         5.22952697716014   13.64140550296274   15.43996784019630
H         6.96656700208433   13.77234491229505   15.78930426467529
C         5.85643253494581   12.66950047966554   17.28177259175740
H         5.17753943516640   13.33465908963628   17.82655375079949
C         7.20985469971557   12.69068886200857   18.09327045533987

