101
CSD_code = WIYDAM | q = 0 | S = 0 | Stoichiometry = C32H61NiP3Si4 | MND = 5
Ni        9.61122871400617    3.09447390691806    3.68015716326938
Si        8.69289817513572    2.84575818308539    5.73830554920881
H         9.69935094080824    2.40298417418174    6.79260088975809
C         8.02504004792414    4.40610103202877    6.63564855351155
C         8.55422518671476    4.68907938717314    7.89082382080538
H         9.32452035436781    4.04411468401431    8.29041582507477
C         8.12677320497358    5.76168220931042    8.64911742666968
H         8.55892159336580    5.94809106374588    9.62294906174259
C         7.13982578211773    6.59437986033878    8.15168479428790
H         6.79072160494090    7.43873816180971    8.73005304636856
C         6.60497709447971    6.33036114774456    6.90532052269215
H         5.83264923435712    6.98068435854585    6.51810702774555
C         7.02326351592471    5.24898381847649    6.13187106620806
Si        6.17975553859844    5.01689296142185    4.43776386512253
C         5.87837836816017    6.75554913567242    3.67052311910382
H         6.56975500415479    7.50358843940474    4.04686679380850
H         4.87317176908494    7.10406464868035    3.88919218797296
H         5.98237045887781    6.72660619717025    2.59029243971238
C         4.42703681233960    4.31637980510491    4.74297784929339
H         4.46146563529243    3.28343490680652    5.07046904980626
H         3.84591866853238    4.34510124442419    3.82612342394003
H         3.88952625954300    4.88782209127388    5.49473204266057
Si        7.43751094545241    3.48957815719171    3.16187058613161
H         7.27772887399237    3.93029589750306    1.71292129541798
Si        6.95735447811816    1.26337107690046    5.90754126246845
C         6.23391966267560    1.99103929105249    3.15154091413307
C         5.48979909778508    1.78147066393084    1.99601414382984
H         5.64402758566791    2.43653377016937    1.14946987878993
C         4.55287957328705    0.77082493982323    1.89515646719439
H         3.99067943161434    0.63722661705577    0.98070787275364
C         4.33871836502373   -0.06621159615367    2.97575300388660
H         3.60839146919102   -0.86161430787567    2.91709257366550
C         5.06876414095501    0.12899242459469    4.13276704883643
H         4.89711765543783   -0.52538861879106    4.97634811345203
C         6.01490746490510    1.14492548975088    4.24926147719523
C         7.53073343900386   -0.52077121623749    6.33188055137898
H         8.29294674316826   -0.50718988063599    7.10527273924641
H         7.94650454026589   -1.02875078800364    5.46635378604354
H         6.70738894125290   -1.12647421356180    6.69908963097561
C         5.73208461116569    1.78202308798694    7.27844488865239
H         5.54728843390661    2.85092686182466    7.25363537442211
H         6.13779387863677    1.54626203306218    8.25728531338369
H         4.77631268156822    1.27452543728446    7.18545056342720
C        12.48609627745708    1.70259785793495    2.82564333071844
H        12.92779419121883    2.68249628215273    2.61512653597459
H        13.29780908566254    0.99332987630306    3.00599881139234
C        11.62299609673876    1.26586529552575    1.64859666674666
H        11.39519072067885    0.20037468725205    1.73018760621958
H        12.15140330684470    1.42647593632646    0.70453684798386
C        12.69771248432171    2.58277214057442    5.53693655171589
H        13.04601786811732    3.53309221188191    5.12045647425489
H        12.13664134440317    2.82028249459269    6.44628380777688
C        13.89244489364904    1.70771326413343    5.89218325062455
H        13.57692706643302    0.80770440175369    6.41309434747051
H        14.55990040713355    2.25837357873114    6.55433965779985
H        14.45942584125877    1.42563269220038    5.00777477373263
C        11.11960056018514    0.22304713359212    4.95552593340793
H        11.08898828836966    0.31439292475626    6.04542287954371
H        10.10234513525922   -0.02262108209120    4.63869296125848
C        12.05703266343833   -0.90605199191355    4.54328533571926
H        12.01595830291832   -1.08291323644273    3.47079746273549
H        11.74864231085640   -1.82487423312157    5.04104603009327
H        13.08918353254880   -0.70683272624519    4.81658362469859
P        11.44097749169127    1.94428601094924    4.33707638787382
P         9.99598775645694    2.17802514658262    1.63883934303922
C         8.57724618357352   -0.19922584447290    2.08666974624603
H         9.45240651863584   -0.80401813805132    2.31963518107157
H         7.78351003730703   -0.86548216555196    1.75346719681205
H         8.24061033935671    0.29446514430736    2.99784823946190
C         8.88783290394791    0.83706037870969    1.01571931681328
H         7.95938934511167    1.32428223942463    0.70678143709167
H         9.34598299450041    0.35988823260324    0.14525515277006
C        10.15707761529855    3.22463267068583    0.11823518548597
H         9.28000228292966    3.87712584749022    0.10627780887448
H        11.02952935535040    3.86298629369650    0.29261673368771
C        10.28568575274278    2.52195512410229   -1.22714935652222
H        11.08268250793547    1.78076148018219   -1.22260085150808
H        10.51469583356200    3.25514520085769   -1.99945146305588
H         9.35689041028621    2.02834082270863   -1.49975722140034
P        10.60015717523318    5.27222626464175    3.64033323738135
C        12.20340599812398    5.65165781473013    2.76481906810556
H        12.94888014918431    4.97935116239766    3.20315351583600
H        12.07781485674922    5.34760143719035    1.72155676554672
C        12.71656166440758    7.08395386584840    2.82493236309010
H        12.08045742796066    7.75504460963190    2.25432970344326
H        13.71954690244540    7.13394779659672    2.40153160619279
H        12.76602956474695    7.44213816325802    3.85048795693275
C        11.06362682667581    5.77932537149262    5.38177139069375
H        10.75170991722727    4.95004394445960    6.02066078572997
H        12.15543994447529    5.83339786016599    5.42743809767688
C        10.46196891961773    7.05762715802728    5.94985927842477
H        10.79775211996189    7.94277284272619    5.41518929363350
H        10.76637948668080    7.15960819533618    6.99068114884371
H         9.37652547871046    7.01928988533366    5.92641862150746
C         9.57008910077709    6.70876510388302    3.09401359158280
H         8.65021148938558    6.65394239697895    3.67812352615793
H        10.07716742599093    7.64500957637644    3.32951791598473
C         9.22893097926618    6.65087961346748    1.61254679100703
H        10.12290699289091    6.73029988509780    0.99685693893829
H         8.55975820812609    7.46779254604323    1.34789775579974
H         8.73133568840240    5.71267200999347    1.38415191684184

