25
CSD_code = WIYHUK | q = 0 | S = 0 | Stoichiometry = C10H10AuClN2S | MND = 2
Au        4.25272868709995    3.75411822039413   10.98595415952571
Cl        3.99265830736225    3.12860795869421   13.09815174702920
S         3.58894288143930    1.86514627805964    8.49704881523477
N         4.49006006193826    4.30543976370137    9.01252882695528
N         4.37551044287562    3.60291982324194    6.75840545804804
C         4.22083598890971    3.43858813793327    8.09714440617733
C         3.56458473346475    1.43613680313743    6.78788955769193
C         3.16765798109402    0.24189112266662    6.21887894202551
H         2.81036457960153   -0.56245699323700    6.84067156079724
C         3.24439040114106    0.11262418344908    4.84215248050482
H         2.93968740373128   -0.81125784924141    4.37678449162781
C         3.71400436331345    1.15747807713338    4.05885035490780
H         3.77370158301857    1.03726057850394    2.98837072115326
C         4.11312404143699    2.35559144508239    4.62641625102507
H         4.48490518763365    3.15624358625150    4.00698480335536
C         4.03114820599507    2.49707259315198    6.00388209043019
C         4.86183727124589    4.85640804280009    6.22274849376929
H         4.38434396515652    5.03339803040540    5.25583350364333
H         5.94661174816468    4.79619460983015    6.07196332599526
C         4.51718513427452    5.97313508794690    7.20255087275043
H         4.97582982875274    6.90686363795418    6.88118956420964
H         3.43380484216816    6.10747899529362    7.23029923643965
C         5.00661266478771    5.59577060992056    8.59832062353807
H         6.10209000142864    5.55997371805596    8.62628021522560
H         4.67787969396560    6.33147353886909    9.33319949794094

