32
CSD_code = WIYJAS | q = 0 | S = 0 | Stoichiometry = C15H12AuClN2S | MND = 2
Au       -0.58513281608722    4.15362847068995    5.12812729231637
Cl       -2.64590820625962    3.79526213082478    4.39743870420851
S         2.31598320337600    1.94017399337469    5.86551137964319
N         1.28577415905640    4.49900887103462    5.83626807622375
N         3.26423616221190    4.13745663238684    6.81692457098451
C         2.19197754989269    3.63748007026757    6.14902195512803
C         3.88904090109362    1.93889779349824    6.68462270848827
C         4.72663782353541    0.86286977578581    6.89786095166430
H         4.45215306997028   -0.11955133399945    6.55015315225806
C         5.92067063104803    1.08277923567810    7.56705520780814
H         6.58853400323310    0.25467103415197    7.74340701245077
C         6.26539959143549    2.35188313663038    8.01135230666799
H         7.19989665544066    2.49985181228490    8.52974042546401
C         5.42990932168695    3.43533408263019    7.80106972969990
H         5.69364389156958    4.42324147736233    8.14431458163574
C         4.23408052912747    3.22307846707015    7.13226828286464
C         3.09341902603035    5.55545192069668    7.01814057953908
H         3.88063252328583    6.11902092930171    6.50938022900862
H         3.10272854451209    5.80711713321868    8.08301096729501
C         1.69149565949474    5.79701153533015    6.38216545778173
H         1.74744852869146    6.50916318263459    5.55286722944510
C         0.65410832089510    6.26340178797858    7.37287262133963
C         0.39170978896952    5.50719649130219    8.50924387039505
H         0.94085417307818    4.59271479794435    8.68803483090962
C        -0.58399468977828    5.90650106082162    9.40340434328366
H        -0.78570606405674    5.30857748068468   10.27948315724032
C        -1.30646288443930    7.06447396956470    9.16971082989154
H        -2.07293205553180    7.37209325065363    9.86470726198687
C        -1.05050064955878    7.82047038621486    8.03913689397799
H        -1.61665720971456    8.71955708870500    7.84890000069029
C        -0.07515507879366    7.42090810838359    7.14253559440221
H         0.11561559658728    8.00627522689113    6.25496979530068

