108
CSD_code = WIYJIA | q = 1 | S = 0 | Stoichiometry = C46H56AuN4S(1+) | MND = 2
Au        5.24433041111485    7.23033564679672   24.88394575362393
S         3.27933780704087    4.74805861165672   25.11252628339457
N         6.20396050187927    7.25386070131515   27.67909420377315
N         6.95352793815017    8.97307022003527   26.64536002602137
N         4.25443272893948    6.41832554769780   23.29197043076014
N         3.02612247281100    4.53670957273822   22.55579813558578
C         6.19186503592300    7.88085036811770   26.49234261674006
C         6.96747159503179    7.94877535565116   28.57640262038147
H         7.10673868530181    7.61835086847609   29.58451685854854
C         7.44227242797061    9.03726451471301   27.92182575348321
H         8.07410377698888    9.83562413505427   28.25077810301115
C         5.50846490334444    6.03656862278921   27.92911280074250
C         6.12828218004903    4.82701795229761   27.60888502966782
C         5.42028028214724    3.65462379228910   27.83764369252154
H         5.87245282091039    2.70393982060460   27.60369403343872
C         4.14200067469742    3.68948142245022   28.36034665960851
H         3.60925905131413    2.76700887143514   28.53529833020726
C         3.54414592597618    4.89788407265615   28.66198113247631
H         2.54314953079098    4.91112586893346   29.06221686185211
C         4.21620013624419    6.09499300505963   28.45432700603695
C         7.51882286252718    4.77395766949085   27.02092094030364
H         7.91997875532468    5.78973165950106   26.94582532291206
C         8.45944910139486    3.96606019785037   27.91760367867472
H         9.47105447902911    3.99984828641885   27.52062006130524
H         8.15044258779949    2.92627020537883   27.97408985330544
H         8.47114066497194    4.37487962495660   28.92551623254231
C         7.47328065840313    4.18951997462280   25.60705614785224
H         7.09943233512427    3.16924086649792   25.62049048628059
H         8.46976758661149    4.18623556308221   25.17235783479479
H         6.82298788708449    4.79088864489207   24.97183832992395
C         3.54158521016741    7.41335893683444   28.75033690210186
H         4.27113181061144    8.22352093517263   28.65085628464090
C         2.99365250311201    7.45836095063333   30.17774494886382
H         3.77522359140205    7.21916642450097   30.89541456857547
H         2.17827911277194    6.75338467914491   30.31029443260021
H         2.61746798964519    8.45438351808908   30.39767876667021
C         2.42839519604619    7.65682609156709   27.72768351475895
H         1.95696577396357    8.61916072705181   27.91029301576691
H         1.66942365745683    6.88190558884578   27.79499387030401
H         2.83536981765969    7.65297922822635   26.71685019943394
C         7.20686407612016    9.90757617416408   25.60157196220089
C         8.30349555975668    9.69764791697413   24.76363844936123
C         8.50879240055483   10.59827430763376   23.72703245917100
H         9.34315240368842   10.46033269556495   23.05826118748191
C         7.65622228317756   11.66964928666087   23.54093354639852
H         7.83191492140570   12.36122076862441   22.73118441188398
C         6.57999932157149   11.86098367836721   24.38622266730758
H         5.92295936551618   12.70111210601807   24.22792270404539
C         6.33301956065681   10.98299773871018   25.43332602868414
C         9.23378695306475    8.52272138160276   24.95310716709029
H         8.96731019726444    7.99532724034308   25.87480838667155
C        10.68663745618423    8.98297826897642   25.08819082910383
H        11.04408115711313    9.43192022937730   24.16624478112650
H        11.32400573129969    8.13341777292358   25.32072310309779
H        10.78332511681243    9.71521874038709   25.88665502368384
C         9.07667110906326    7.54076809884001   23.78969156379573
H         9.34774238343277    8.01036307354792   22.84839965781091
H         8.04504953175151    7.19840054901207   23.71451014215416
H         9.71847741240813    6.67624257777898   23.93920932263492
C         5.13781584165063   11.18183467769297   26.33547635681343
H         5.17430251054708   10.45133162617967   27.15012315658162
C         5.14060250090234   12.57684071400807   26.96322798511018
H         4.32604523484460   12.66252297045497   27.67821419237768
H         5.01156151837967   13.34805120131499   26.20957503080964
H         6.07755925848150   12.75978329903848   27.48457172488643
C         3.84793743157228   10.93813586801291   25.54780440922102
H         3.84709314177091    9.93336503772860   25.12563140106331
H         3.75170725765965   11.65395334768606   24.73597169291777
H         2.98578399676421   11.04135889209278   26.20182110197320
C         3.57921123462786    5.33281118015428   23.49438335432474
C         2.37868574546540    3.38502591262677   24.45883086632547
C         1.76166387965666    2.36612395052634   25.15712612114556
H         1.78924076724212    2.35114312463885   26.23426276265874
C         1.11460486130076    1.37805027861134   24.43466138668413
H         0.62371973989513    0.57258121831504   24.95666934110472
C         1.09555594156370    1.41374153146333   23.04686003894987
H         0.59103766505934    0.63256660509283   22.50079564148644
C         1.71493432336667    2.43432603047562   22.34643102838513
H         1.69834632104781    2.44527657041716   21.26861647297257
C         2.35765431077368    3.43447688659953   23.06112680121885
C         3.19528048983625    4.83949841141506   21.15006860768402
H         2.30527977315873    4.50702845728763   20.61285390423026
H         4.06685181741945    4.30122471790545   20.76347911047792
C         3.37126587248864    6.34792311704565   20.99374077800180
H         2.46025023601769    6.81870571728988   21.38711892068907
C         4.50635925590725    6.83745178687942   21.91947752424428
H         4.47932973336311    7.93345497208791   21.92952813460272
C         3.52505959727850    6.80111727511487   19.52738474476563
H         4.00991287152583    7.78275287672262   19.54599229949141
C         4.37727306708483    5.86822304287374   18.66813970380172
H         3.86093004777877    4.93007909685609   18.48019598678106
H         5.33761286962897    5.65877517047148   19.13017273857393
H         4.56454666729818    6.33989638559170   17.70692696347426
C         2.14910939783258    6.97195561555023   18.88215946702643
H         1.54824360673553    7.69649974373471   19.42678323630317
H         1.61142592559996    6.02695625649000   18.85512436429649
H         2.25941032905778    7.32397848327734   17.86021747628164
C         5.89932622628916    6.41566834388750   21.50850788382095
C         6.40789402274233    5.16434348908516   21.83534186368280
H         5.81636649269640    4.46579894294597   22.41092774361788
C         7.68546254935340    4.80015257257385   21.44636572700976
H         8.06388431369966    3.82330280430495   21.70701209204022
C         8.47175014239564    5.68237905804223   20.72717873300035
H         9.46489568110716    5.39505227188419   20.41866095254224
C         7.98054557927982    6.93878763269508   20.41401136344304
H         8.59072906439553    7.63621475025002   19.86058741296731
C         6.70796740347195    7.30619263173134   20.81099074368322
H         6.33481607553977    8.29128410390708   20.57260553914841

