63
CSD_code = WIYJEW | q = 1 | S = 0 | Stoichiometry = C30H24AuCl2N4S2(1+) | MND = 4
Au        2.63052853474197    6.70461646246654   12.50579156832010
Cl        3.29043486866517    7.87705630711001   14.35029323256692
Cl        1.97390532673825    5.52479572617399   10.65602168595600
S         5.47646988781495    5.68885403925952   10.32820039677528
S        -1.05890312480661    6.22074542561342   12.31052370356482
N         4.14492610651036    5.51593641261500   12.74902962977796
N         5.63211566173109    3.95116468351264   12.20949971286034
N         1.12886619187103    7.91652914390550   12.29925103638493
N        -0.82278152959082    8.65039471423647   11.52203055771554
C         4.98884184807904    5.07099250697772   11.85018234334322
C         6.63878221876945    4.35646653598343   10.19205777974672
C         7.52089709663994    4.10528551816243    9.15832306811735
H         7.55904314858295    4.75486900046727    8.29967615279165
C         8.34908333090522    2.99997095081424    9.26285642985868
H         9.04603791286336    2.78543734048901    8.46884277513240
C         8.29619612899310    2.16689772081018   10.37445989992528
H         8.95256545974421    1.31340624848801   10.43145844115091
C         7.41420713503564    2.41238313486422   11.41164321510702
H         7.36989378370546    1.76904043258536   12.27559049552493
C         6.58141197452365    3.51666736201934   11.31293180188996
C         5.19229189025993    3.50440102239217   13.51318373301242
H         6.01590672852558    3.54707511337015   14.23070320488283
H         4.80768076695094    2.48194560986966   13.46957941522162
C         4.08396515482394    4.53226637582971   13.85044327200915
H         4.29684857052425    5.06705390533381   14.78125582361241
C         2.67365569935984    3.99233077317138   13.88732245713912
C         2.22265935824719    3.11109706406968   12.91056681221942
H         2.89475404966643    2.75094787463928   12.14469692764671
C         0.90149810690613    2.70269217227741   12.89902397044242
H         0.56120123999720    2.01909364552973   12.13658288941951
C         0.01919580384517    3.17617197308324   13.85553612231258
H        -1.01167801744808    2.85761149085243   13.84254603888962
C         0.46019295953823    4.05902376826256   14.82676936227163
H        -0.22295416792059    4.42835678517065   15.57614847054489
C         1.78181214711152    4.47031870316899   14.84165264291727
H         2.12743539074312    5.15610144345072   15.60140820933318
C        -0.12476892188735    7.63191459391239   12.04371056545031
C        -2.48357704070130    7.08268798407268   11.69985650617870
C        -3.77518386898142    6.60562434232580   11.58077857107225
H        -4.01682480297260    5.59696652464184   11.87250867248347
C        -4.74165533264681    7.46197848151202   11.08015854924258
H        -5.75628796485353    7.11165851126074   10.97965174639225
C        -4.42416813372831    8.76292962327017   10.70703888737190
H        -5.19617154055269    9.40924966302535   10.32097848390586
C        -3.13285061164200    9.24534864437071   10.82213029067920
H        -2.88165843828936   10.25389080860393   10.53536524087413
C        -2.15995501511402    8.39329849416503   11.32262784200277
C         0.02084967736333    9.81252731097102   11.34800033451869
H        -0.32044202596336   10.63290176714733   11.98469860235912
H         0.02350356260631   10.14439370873203   10.30623885470263
C         1.40422966564055    9.27802958278012   11.79422448768625
H         1.81467519661244    9.86019555691169   12.62501503440190
C         2.44280373037481    9.14831470907726   10.70492555147944
C         3.77013607590311    9.45715399312089   10.98312973149483
H         4.03342582576085    9.86978810241681   11.94614186365949
C         4.74851175109039    9.24787764296646   10.02654893005817
H         5.77472200944632    9.49753912297293   10.24840172047321
C         4.41054016896427    8.72062937428001    8.79163917013607
H         5.17388891837631    8.55571193091393    8.04674045931383
C         3.09118795868965    8.40658656827569    8.51170091111605
H         2.82325551269559    7.99162876280073    7.55249295680827
C         2.11032211932377    8.61576667990757    9.46392241093996
H         1.08860388182018    8.34381012852365    9.24029034679021

