61
CSD_code = WIYJEV | q = 0 | S = 0 | Stoichiometry = C19H38CoNP2 | MND = 6
C         0.15202766351275    0.53061837110737    7.04911495903024
H        -0.32703713274618    0.67638400213423    6.07323512660912
H         1.10373882448445    0.01276648423915    6.90068423906091
C        -0.77290043709409   -0.25357701231802    7.92160914976980
C        -0.74546090575715   -1.63831411202906    7.90208406775064
H        -0.03392319153093   -2.14352373411771    7.26614470946669
C        -1.63133502118038   -2.35638075109350    8.68765538050804
H        -1.63134058210359   -3.43506223639476    8.68765613750776
C         1.88571811828650    2.01258901039766    8.78368470112626
H         2.68574168371843    1.70855097449649    8.09774603473033
C         2.22940901055954    3.33976499325807    9.44959108714106
H         1.34692650145050    3.72867712537645    9.95660381433127
H         2.55869157727080    4.07530186187161    8.71963511644917
H         3.02463319264975    3.20762695000122   10.18251103502301
C         1.69127750562466    0.92786588340587    9.83695056436878
H         2.57974383924250    0.84656797162263   10.46243042298237
H         1.50294516737573   -0.04537558746763    9.38500708352638
H         0.84614132743559    1.18172576412045   10.47484470279889
C         0.80269647297243    3.18919993884430    6.28327459489562
H         0.01966117926668    2.90021437844022    5.56697053884169
C         2.16471700146475    2.83041419840186    5.69853364499753
H         2.27421513277583    3.30011544594454    4.72159118830723
H         2.27464846114176    1.75522920871390    5.56908029598889
H         2.97059742311517    3.19239739037754    6.33301869785289
N        -1.63130595166188    0.44281838525658    8.68765198864254
P         0.31296775963392    2.21203347001837    7.79662131339544
Co       -1.63135358158098    2.37446006754811    8.68753692437386
C         0.66869860827175    4.69019761802655    6.51365786183935
H         1.46730433957715    5.07093967851595    7.14506309416677
H        -0.28296852522944    4.89989334130361    6.99825703971932
H         0.70418433229412    5.22016119058671    5.56268596293740
H        -1.12840219908928    2.45189838637632   10.06066816932742
H        -1.63136813089788    3.81006044164331    8.68748922587874
C        -3.41464843118954    0.53063424105391   10.32619045805262
H        -2.93558391795438    0.67641262709606   11.30206525763919
H        -4.36636818256562    0.01279298769490   10.47464119640139
C        -2.48973214172841   -0.25356694654956    9.45370131038425
C        -2.51719818296838   -1.63830195692904    9.47322262017287
H        -3.22874367279410   -2.14350307634168   10.10916322981480
C        -5.14836708203160    2.01257706967402    8.59171921897175
H        -5.94832402113953    1.70851737945011    9.27773248208573
C        -5.49219072899841    3.33972575452769    7.92582837927194
H        -4.60977598402309    3.72867407810939    7.41872835777566
H        -5.82144745478627    4.07525606569880    8.65579950121954
H        -6.28747669125070    3.20754594914294    7.19297667930886
C        -4.95402293561968    0.92786624370592    7.53842949823747
H        -5.84253914463281    0.84657213611592    6.91301988147419
H        -4.76564884353692   -0.04537803490812    7.99034517863517
H        -4.10894123454185    1.18173817228822    6.90046759878868
C        -4.06527327892486    3.18920109288904   11.09199093175035
H        -3.28220436289710    2.90024119694425   11.80826498537337
C        -5.42726289033009    2.83042808287133   11.67683068586072
H        -5.53669750508399    3.30015111910971   12.65377729363111
H        -5.53718789831529    1.75525001032830   11.80632011171784
H        -6.23319215184204    3.19240006712301   11.04240006583996
P        -3.57553200773063    2.21202863060814    9.57863769236508
C        -3.93132624384117    4.69019881297238   10.86159964592233
H        -4.72996274073016    5.07092619319013   10.23022266067085
H        -2.97968273809082    4.89990717970659   10.37696441204363
H        -3.96678458926118    5.22016764045106   11.81257181020007
H        -2.13517440644249    2.45179818536862    7.31469998304386

