74
CSD_code = WIYMAU | q = 1 | S = 0 | Stoichiometry = C32H33N6O2Ru(1+) | MND = 6
Ru       17.05255710229209    4.25267333429725    3.28257768378312
O        18.36288611295357    4.24026916676644    1.69268008187513
O        21.75768183356215    8.38069653656550    1.62788576894891
N        18.04804346711332    6.06586557858664    3.58194042375594
N        22.10815856690208    6.51263819099664   -0.10191520110762
H        22.57695467802652    7.40806636372770    0.07046924841096
N        15.62856479308864    5.28059866284053    2.40146902378007
N        15.66539602356253    4.17942440686297    4.69714749000188
N        16.47702113926437    2.43597346936760    2.72292140547507
N        18.51500085170545    3.17574699362341    4.12643452945167
C        19.20114188825909    5.18981318761154    1.69899988227546
C        20.22449465431612    5.25347880930640    0.74763315023408
H        20.29063634935278    4.44819577271626    0.03051882371291
C        21.09735378737625    6.31999622739312    0.72169365119807
C        20.95257900179800    7.44775350339723    1.71580756358046
C        19.91016587425537    7.34933658067137    2.65510996930281
H        19.83372671177564    8.18070677674127    3.33587747669745
C        19.04552963268440    6.26658403237774    2.71386326535563
C        22.54425965493264    5.71020466982662   -1.21890170618414
H        22.32567875259467    4.66121806797610   -0.98819116744731
C        24.04690133843716    5.89363469095787   -1.39536769208877
H        24.27579535878437    6.93109860305237   -1.62785972994618
H        24.40678059726524    5.27173588342620   -2.20982712941465
H        24.57590732374695    5.61473374124924   -0.48738672441540
C        21.78185693056365    6.12008541544191   -2.48153830052906
H        20.71133615370252    5.99563550493906   -2.33676325535696
H        22.09468977719367    5.50676699843283   -3.32150249351675
H        21.98128192842794    7.16227666339330   -2.71824566398856
C        17.78696553505078    7.13148845483179    4.53625616915995
H        18.75139265501109    7.53862219634075    4.86964070319951
C        17.05197859879556    6.64496014965072    5.78338825811198
H        15.99582140497296    6.48888447306041    5.57861516087929
H        17.13099854790110    7.40362618140388    6.55838642765889
H        17.48692051693598    5.72351383802483    6.16480516991263
C        16.98238587071296    8.25361087769261    3.86683714617698
H        17.50186377382901    8.62641900063851    2.98810946152618
H        16.83995304625650    9.07477212364646    4.56371491957096
H        16.00511005442558    7.88257810770636    3.56104905105211
C        15.74645751689093    5.87878042706539    1.21468526872212
H        16.67184923897594    5.70317897635158    0.67967231595807
C        14.75714772934581    6.67653896594440    0.67569571151436
H        14.90399088959221    7.14248200156043   -0.28473158421388
C        13.58078361164887    6.87044405192334    1.39276950256667
H        12.79340953247635    7.49493984168209    1.00297904625890
C        13.44346119932284    6.24738887815781    2.61846617423811
H        12.54748298281999    6.38467272705484    3.20101767436657
C        14.48164462592735    5.45246148078938    3.10377836813818
C        14.47406845381578    4.75042636031441    4.38029363163079
C        13.36587891694927    4.64135684183695    5.21988015590534
H        12.43168632400637    5.10089864999643    4.94236852093157
C        13.47107267031062    3.93555044842702    6.40206539901739
H        12.62655820771852    3.84264566969745    7.06515027585919
C        14.69174534271554    3.34496838550445    6.71411476185919
H        14.81794064535936    2.78115693017279    7.62366559169513
C        15.74950844047661    3.49229185038960    5.84117104683730
H        16.71376753270388    3.05112594268243    6.06641390602810
C        15.35616888142884    2.11778672571986    2.07682458991422
H        14.60139933940032    2.89189580521647    2.00253468534692
C        15.13324477758791    0.87416023727741    1.51965449701812
H        14.20846159503889    0.67074726215535    1.00518702512936
C        16.12303790578437   -0.09531243178414    1.62940440372593
H        15.98894073551076   -1.07336300534764    1.19619610571471
C        17.28305549425276    0.22026290233263    2.31047869518507
H        18.06317965634769   -0.51510132888681    2.41553170798884
C        17.43893219274745    1.49472992760514    2.85489119544815
C        18.59767386325798    1.91557259158159    3.64109695131979
C        19.70020125666291    1.10666181255245    3.91316845395552
H        19.75689873585251    0.10923343455070    3.51026608267364
C        20.73122968351228    1.59707261146227    4.69313613948591
H        21.59516879418538    0.98789004499601    4.90549595018785
C        20.62959014298517    2.88829178385264    5.19424160391206
H        21.40826114467852    3.31247654290525    5.80647139565833
C        19.50849533874927    3.63590859719672    4.88507565508403
H        19.40223631313300    4.64929482152683    5.24995625385770

