66
CSD_code = WIYNAT | q = 1 | S = 0 | Stoichiometry = C24H36Cl2FeP3(1+) | MND = 8
P         4.80404205765289    1.20339815394950    0.08976430712340
P         4.04864743537595    2.94054212020389    2.35680650998231
P         2.29956556490787    0.53044163139526    1.63685310157445
Fe        4.37588432130696    0.82598267697791    2.17046347187602
Cl        6.23900825101073    0.47574736656512   -1.02573020666271
Cl        5.37301566831669    4.07581964113417    3.26663808063395
C         5.09240768245312    3.01858996959357   -0.13904350651719
H         6.09705581014334    3.20649631477705    0.25641583741872
H         5.08158170176875    3.30110375797826   -1.19415106098606
C         4.06345134442713    3.76625647873724    0.69175400993563
H         3.07678159205553    3.70147487197460    0.23179366822688
H         4.32192011025327    4.82273002772736    0.80478657917798
C         2.49272122130959    3.57666558133718    3.11158160837510
H         2.50282618182198    3.26433341083710    4.16065140850028
H         2.52586112666376    4.67113113626134    3.08535303279175
C         1.22420135595656    3.07318869573532    2.43194558374427
H         0.36740744642624    3.53973731069270    2.92657605085382
H         1.20142723601742    3.40752913114406    1.39322652164770
C         1.04116684445335    1.55981736890219    2.50828227549871
H         0.05959559545351    1.29314657260402    2.10133079037344
H         1.07614290630125    1.25307978557014    3.55805052194551
C         2.02861308093109    0.99319745070486   -0.14407615294731
H         1.22023150498110    0.37900288803927   -0.55202112724880
H         1.69665245057651    2.03405387874543   -0.18067509117205
C         3.30245006377494    0.82830639962780   -0.97083843791997
H         3.44070441480317   -0.23606931900551   -1.20435561212959
C         4.73010522787843   -1.15162955113036    2.93251636899801
C         5.94725696065459   -0.62131543485551    2.43696924930205
C         6.22814101848896    0.59473445839563    3.13263983676231
C         5.22044090197994    0.75983883882131    4.13617881347526
C         4.26430959679183   -0.27681136272541    3.96902248754590
C         4.25494604514001   -2.53762393383469    2.66767497091287
H         3.23642729347650   -2.69011477418896    3.00906616564359
H         4.90064653966893   -3.23371036288409    3.20596043442908
H         4.31358612767061   -2.78305807851180    1.61095867145053
C         6.87031774565089   -1.34567489888353    1.52443386726716
H         7.37755372350880   -2.12593359709895    2.09436350566993
H         7.62624989759493   -0.68654613393907    1.11081361346754
H         6.33103038388864   -1.82791050573527    0.71306854278836
C         7.50716097175814    1.35195409323409    3.00823823028029
H         7.77620895670869    1.47658906792544    1.96125705564382
H         8.31054674675565    0.80340113868138    3.50075055737444
H         7.43618382268616    2.33382930041069    3.46383252110805
C         5.24704331759072    1.67211420694644    5.31410566599352
H         5.31657786174615    1.06572248252809    6.21812540031092
H         4.33956885002860    2.26902393688265    5.39002548134838
H         6.10287035285904    2.33753909903911    5.28737027272503
C         3.13425866679474   -0.54523574655017    4.90181055782999
H         2.34540489241179   -1.10801147773451    4.40984816707978
H         2.72371308561154    0.38383655714780    5.28984661014389
H         3.49088807430651   -1.13336405268934    5.74861306971585
C         1.49201846359871   -1.10085181338557    1.66533398026984
C         1.89434480869522   -2.02335136505551    0.70115674150734
H         2.66952978188707   -1.74945098615273   -0.00030319338459
C         1.32161772328078   -3.27891859213723    0.64167519624784
H         1.63585174401694   -3.98017180662380   -0.11630871224049
C         0.34740647054907   -3.63767770853112    1.55976810429009
H        -0.10106126271802   -4.61782555703305    1.51833535056232
C        -0.04665622819476   -2.73461935685917    2.53213549768539
H        -0.80303925961296   -3.01062391796631    3.25106563045185
C         0.52008366277937   -1.47216569150062    2.58928504645556
H         0.18787825876429   -0.78502139674802    3.35222346509711
C         3.24628989662521    1.59471051137232   -2.28780500187101
H         2.46603352231208    1.17870858488048   -2.92230721113180
H         4.19049854335901    1.51316147435567   -2.82346554371494
H         3.02090384389093    2.64725104985604   -2.12986163159549

