131
CSD_code = WIYNOJ | q = 0 | S = 0 | Stoichiometry = C42H84I2P2Pd | MND = 4
Pd       11.51715535217858    4.14612281910570   21.64026317986900
I         9.21085097567679    3.24880772590809   22.39756793705731
I        14.01361591640632    4.79230545628819   21.41216567759432
P        11.01991520867441    6.11055971431381   22.70798709280334
P        11.97987202441007    2.21654498626592   20.49623583452631
C         9.51448357431523    6.86241615697695   21.97069053499512
H         8.66381143368716    6.22030483471057   22.21234383388908
H         9.32571901570324    7.85132783464510   22.39450827070609
C         9.73099987244350    6.91980444754352   20.45749769395458
H        10.47590641601883    7.68753422154818   20.22747391825654
H        10.15019786596931    5.94915234774566   20.12771010840607
C         8.45778101866586    7.21280469146134   19.66615743950858
H         7.97677352456959    8.09400189143895   20.09939364489555
H         8.73497059534219    7.46018831887303   18.63803044449286
C         7.45548018097062    6.05704342820848   19.63805764773335
H         7.22610549370982    5.73003710158230   20.65387353726335
H         6.52404330569977    6.42031424584776   19.19757684114600
C         7.94331937587819    4.85696024461403   18.83106586384477
H         8.17512187607381    5.17132292894569   17.80969127836782
H         8.86248798113305    4.46207280312171   19.27290744245492
C         6.90946666061683    3.73472728143724   18.80563295497169
H         5.96422722047978    4.11285722964758   18.40999356435071
H         6.73218611283594    3.39741708004453   19.82971700977859
C         7.38295009922806    2.55268170750070   17.96419401373024
H         7.45114265971675    2.84962450834099   16.91424028738158
H         8.38574018190660    2.27933879462217   18.29615943442393
C         6.45810031583949    1.34626225062363   18.09848847630491
H         5.44991076104585    1.63945964254130   17.79576162806125
H         6.40535155091334    1.05459984120804   19.14880946746858
C         6.88482392080828    0.14820845978395   17.24573909785950
H         6.18130116590629   -0.66913696407473   17.42156789888373
H         6.81125084062986    0.42446754211864   16.19045258706759
C         8.30614750706233   -0.35392607205066   17.50980933864075
H         9.01007324915176    0.44530467360147   17.27699868416001
H         8.51618090843282   -1.17730420986687   16.82165272675686
C         8.51775832279972   -0.84231095891924   18.94139763692327
H         8.22447903657773   -0.06726459008363   19.64826189015688
H         7.86677963713868   -1.70201876071031   19.11682301633461
C         9.96070871177614   -1.26307027351256   19.22806204448233
H        10.26076330469249   -2.02860690732779   18.50769390793724
H         9.99923739457785   -1.71329521295916   20.22334746381781
C        10.97900905881830   -0.11944412616588   19.16821726570901
H        11.96839282292610   -0.53685642782090   19.37525219794338
H        11.00143032546648    0.28791294452357   18.15647227588675
C        10.64968087927659    0.98261617782338   20.16981305353567
H        10.39981260541334    0.54133867202835   21.14156347272515
H         9.76875832837947    1.54050737945076   19.84005288661751
C        12.23599647630497    7.49752752938876   22.70374368500042
H        13.06156581337880    7.18334183842382   23.35278103013015
H        12.64000385897203    7.56418354081323   21.68960668659329
C        11.71762693972312    8.86102560004298   23.14934313742808
H        11.06324493263601    9.28204539158244   22.38487557129715
H        11.12980262289035    8.76375440555281   24.06620916990768
C        12.86373974276981    9.84036774207369   23.42459003274629
H        12.43345307825526   10.78583481657867   23.76519603531244
H        13.47449128844112    9.44324331811677   24.23949023925802
C        13.77232492306693   10.10723487555940   22.22265322960214
H        14.60687869911139   10.72981995597494   22.55364407871394
H        14.19247516955349    9.16433380005736   21.87490382032943
C        13.05837342817326   10.81851459387830   21.07511323714040
H        12.71729545082517   11.79696414451272   21.42435668437662
H        12.17208029424495   10.25756641252969   20.77800181552838
C        13.94636540303287   11.02461015746247   19.84599230576890
H        13.37451755813834   11.58629704285363   19.10246666424964
H        14.80735132852616   11.63518461061483   20.12847748316519
C        14.45852349722983    9.73432449842215   19.19988558455792
H        15.13534011748723    9.21948345493666   19.88389337699421
H        15.03965329205230   10.00307347480742   18.31433422352299
C        13.34607034746285    8.77508897782257   18.78621489889949
H        12.78629811862592    8.46662857121831   19.67057247193720
H        12.65055516678857    9.28539340109826   18.11453570082477
C        13.89195271309593    7.52131122967565   18.10853825899170
H        14.66268281434669    7.07790585564006   18.74360300354328
H        14.35615681773022    7.78974370985716   17.15695729077104
C        12.79476178121232    6.48702447083370   17.87321615168553
H        11.99096591188323    6.92781501685540   17.27708429139228
H        12.37428011958615    6.21093614753284   18.84411177529280
C        13.33133010530306    5.24331136667572   17.16986931968714
H        14.12866947085866    4.81053311910414   17.77684353350597
H        13.77653787609401    5.54311021978270   16.21828899400668
C        12.25161449083278    4.19671913868437   16.88691606254772
H        11.43370639429677    4.67659175497880   16.34307115149656
H        12.66700940060160    3.41947798063388   16.23972868598988
C        11.68016991323980    3.53074010263696   18.13719614447067
H        11.38483138754386    4.31167384174691   18.86288871813260
H        10.77201737684658    2.98477125447439   17.86494538088628
C        12.65661077301666    2.57682907070157   18.82688940724080
H        13.63150869944824    3.05374907022992   18.95533495930249
H        12.80052948225997    1.65585573614248   18.25758068168100
C        10.65226254390494    5.89832999403613   24.49273466977040
H        10.66267139170592    6.87402321207364   24.98727816535703
H         9.65385970592796    5.46469023655146   24.60325080472863
C        11.70500098243894    4.97297336177142   25.10451698936995
H        11.66440925928635    3.99344727789680   24.59687013802636
H        12.70085802439588    5.39599644536494   24.93890504189238
C        11.46461459755440    4.78688233040525   26.59963541978522
H        10.47621705555478    4.34080600992537   26.73936929474601
H        11.45434434844556    5.76970738794116   27.07965227820282
C        12.50694320148373    3.90561210450712   27.28703052558483
H        12.17727821974312    3.71753042265811   28.31189171465924
H        12.54584607282510    2.94431397153774   26.77263512168873
C        13.89801839157657    4.53747339137100   27.32737166189175
H        13.80617712143780    5.56345339906773   27.69484050319439
H        14.31688345995093    4.58866390003158   26.32190692181052
C        14.87153563215068    3.79181419452535   28.24325973763705
H        14.48045632833093    3.81817852667883   29.26394559170997
H        15.82499069490283    4.32623015960989   28.24227502205523
C        15.12025884579883    2.33254322577401   27.85762220898664
H        15.76980783539165    1.88134753699707   28.61241460108475
H        14.17406667777919    1.79241256210376   27.87993897484567
C        15.77935329842440    2.17837783613523   26.48914035150555
H        15.16263326095589    2.64697551279260   25.72321300046579
H        16.73685313865905    2.70568974213523   26.49812536207826
C        16.03514638877938    0.72073386206117   26.10332539399182
H        16.70330442751840    0.26924010537507   26.84121049506151
H        16.55753885012826    0.70454433141316   25.14430351930472
C        14.77791749882612   -0.15041600345453   26.00928680171702
H        15.06924062754776   -1.12856599943418   25.61738163234823
H        14.37895078284820   -0.31237760020956   27.01277550140390
C        13.66118075440664    0.41921784480704   25.13463356618313
H        13.34854075096156    1.38861948607829   25.52465521014703
H        12.79693079522045   -0.24807110373071   25.19961916607432
C        14.05380831391366    0.57525524090686   23.66875178486300
H        14.94899136096512    1.19372221371285   23.58400732695915
H        14.28614802098380   -0.40794500403289   23.25032149002833
C        12.93587141745698    1.21661161202326   22.85353343256892
H        12.79016916168043    2.26015038400761   23.19716948290639
H        11.99726118425917    0.67919096537771   23.02750837582344
C        13.25824908694107    1.22151730993771   21.35841811697102
H        13.27715727628290    0.20307584465328   20.96052617009603
H        14.23681554682027    1.68006664715958   21.18563095489527

