131
CSD_code = WIYNEZ | q = 0 | S = 0 | Stoichiometry = C42H84I2P2Pt | MND = 4
Pt       11.51807733243041    4.10698254231889   21.64011649150375
I         9.13938203087717    3.23214984746867   22.32120934230567
I        14.02960475867024    4.80270834058050   21.34037398843437
P        10.99019705712770    6.09239386273270   22.71671618422415
P        12.01328353471264    2.16636970876955   20.46649482622074
C         9.48218751060015    6.87272858270707   22.01733738050342
H         8.64308439877674    6.20306494030143   22.21632180787352
H         9.27834690952065    7.82349615208015   22.51537030574886
C         9.67587928100253    7.04826360557779   20.51156589005541
H        10.38949510266369    7.85562179710574   20.32774169382328
H        10.12097840484404    6.12857786338605   20.10695254428047
C         8.38042873294339    7.35530705959690   19.76149534123872
H         8.63321014307034    7.66861438105151   18.74528156425441
H         7.88617083394426    8.19770313215520   20.25312645211284
C         7.40283223696426    6.18077296498477   19.68215162632322
H         7.18724150977761    5.80120297722640   20.68246510246934
H         6.46069603700744    6.54536498036497   19.26602396705907
C         7.90862197159123    5.02977149514602   18.81678006226517
H         8.11743241383519    5.39250650521314   17.80690472649683
H         8.84224928558996    4.64189438617769   19.22812185873984
C         6.90384967799438    3.88258722987379   18.75872268758662
H         5.95842038939375    4.23992525259329   18.34459632340606
H         6.71175179196831    3.53187808468635   19.77548766489783
C         7.42604283705772    2.71783612794852   17.92206619557017
H         7.53974272153916    3.03197120414601   16.88116714566234
H         8.41462449565998    2.44852198993225   18.29684273361350
C         6.50492437066773    1.50302819322544   17.99455637548884
H         6.41530711122482    1.18608519734287   19.03493413867507
H         5.50693440087272    1.79826500607139   17.66119896142648
C         6.96838470609923    0.32772863120921   17.12965895134745
H         6.95616692541848    0.63809686997666   16.08137340829746
H         6.24899287730423   -0.48744730596224   17.23956282989711
C         8.36738268468562   -0.19880055139682   17.45706280788587
H         8.61412342709847   -0.99173446736134   16.74563381342713
H         9.08926165777542    0.60406462902301   17.30695406115671
C         8.48476579267490   -0.75513702408380   18.87440652605360
H         7.78392261351759   -1.58644466070945   18.98224171898684
H         8.19584957145406    0.00524754427474   19.59898906825813
C         9.88814147804755   -1.26433487234808   19.21057821891555
H        10.16489704806134   -2.04712802178526   18.49948115460766
H         9.86192819927110   -1.71665267430122   20.20531754075041
C        10.97859467762024   -0.18778159102786   19.18897402383524
H        11.07677399156655    0.20108447149712   18.17467839345532
H        11.92718470160225   -0.66357697239991   19.45151582278991
C        10.66844058180163    0.94604897336183   20.16006805899885
H        10.39483447987003    0.53427539097855   21.13713764808471
H         9.80645563250439    1.51568574625369   19.80400737424799
C        12.22341781177000    7.46190686622396   22.70540874146027
H        13.06230731606927    7.13306339286331   23.32777197288987
H        12.59850560885972    7.53213393021191   21.68137374280034
C        11.73908496060272    8.83013935515234   23.17284545354224
H        11.02621993241208    9.24208700407990   22.45754874529728
H        11.22692215486080    8.74374486418978   24.13477508453173
C        12.90145264228831    9.81408048504747   23.34395290495326
H        12.49470277883390   10.76776270539840   23.69056074651228
H        13.56831893779760    9.43702222144055   24.12361266616595
C        13.72508837527809   10.05252175432827   22.07644995519350
H        14.55907490464757   10.71170482027262   22.32908152325626
H        14.15172763646239    9.10757456736559   21.74216106662339
C        12.92217121106590   10.69316955790646   20.94637459022602
H        12.53955922193401   11.65853484455907   21.28909364081341
H        12.05930010520181   10.07428741755044   20.69987117338643
C        13.74449452368086   10.92146783027853   19.67624567823158
H        13.11357742543280   11.43931592175601   18.94877448141499
H        14.58375419731512   11.58055703613516   19.91153413706289
C        14.29488355082981    9.64761120590050   19.02931104118518
H        15.01004727289266    9.16909779337043   19.70047111953822
H        14.84154930845371    9.93294519994610   18.12704921606440
C        13.21470363509650    8.63805805668254   18.65058168540056
H        12.69746408556870    8.30305126694969   19.55087382775677
H        12.47637012254951    9.11584632053837   18.00115636411441
C        13.79606945622819    7.41078760333493   17.95416932516857
H        14.24106961515008    7.70404051340727   17.00069069756755
H        14.58869224165186    6.99000425127931   18.57741899428452
C        12.73364586186008    6.34038808690590   17.72034141120516
H        12.30828140139452    6.06800434433110   18.68789945362207
H        11.92593386649558    6.74703132061303   17.10608489717609
C        13.31773642365881    5.10179923440675   17.04644200912553
H        14.12278108376362    4.70779269135161   17.66925537817340
H        13.76339521953098    5.39761633778594   16.09370552026488
C        12.27881150755363    4.01236276141078   16.77184192962470
H        12.73708596863072    3.22957650261534   16.16126323494123
H        11.46159569419560    4.44780533886221   16.19107480458504
C        11.69095653917459    3.36815794475137   18.02660480368164
H        11.32448829968093    4.15460749017645   18.70037776591838
H        10.82548372824140    2.76497970599436   17.74015840756677
C        12.68772291838103    2.49784861455620   18.79123613078533
H        13.63399127443375    3.02767881134526   18.91887729951065
H        12.89477486188457    1.56034196165889   18.26995580662570
C        10.60599918502135    5.88116777202866   24.49983519726719
H        10.55728242185745    6.86006298135769   24.98479784708138
H         9.62459049281863    5.40671555416345   24.58886185105873
C        11.67470757771738    5.00507472134268   25.15066704547286
H        12.65453682396796    5.47302170552781   25.02713613913342
H        11.69992243766212    4.03507403369457   24.63584372134786
C        11.39156726473400    4.78219070066167   26.63304973857219
H        10.40061390070823    4.33137316356528   26.73458226555691
H        11.36832502320184    5.74994398179143   27.14191698441364
C        12.41741795394045    3.87698696498279   27.31531082855425
H        12.06707445943054    3.65655866071705   28.32678811247447
H        12.46672322910263    2.93266967215376   26.77057274832748
C        13.80844649521008    4.50361959077841   27.40374046610985
H        13.71195205889365    5.51318435398127   27.81291651988372
H        14.24217965572431    4.59558285710122   26.40773206863105
C        14.76727424244116    3.71776131253488   28.30091177283414
H        15.71559038527236    4.25917951777856   28.35075455979909
H        14.35332809777501    3.68570765489101   29.31239701087316
C        15.04020209159944    2.28385271120127   27.84280121588305
H        15.68888216428682    1.80479047679006   28.58103199761356
H        14.10222652462756    1.72899351535891   27.82604475473736
C        15.71654671289409    2.21011552898984   26.47589557702958
H        16.63381331700056    2.80415576645479   26.50482121456368
H        15.07130050044544    2.65055479377534   25.71654845434989
C        16.08132224461057    0.78434587439913   26.05945131776750
H        16.60269792261422    0.82749111800410   25.10076112553048
H        16.78242192360431    0.36972792385409   26.78844458266821
C        14.89395615288287   -0.17724230550516   25.94709627613954
H        14.49971828913194   -0.37578059020070   26.94585135852656
H        15.26102488178287   -1.12764786470533   25.55058960262332
C        13.74618672608009    0.31479880445751   25.06553420470400
H        13.35927435835189    1.25585722775997   25.45910517849270
H        12.93296075982593   -0.41456424289675   25.11878229787056
C        14.13770320437490    0.50865954305995   23.60319088002541
H        14.98395743799659    1.19370321234944   23.53078249190523
H        14.44677042554934   -0.45055264114294   23.17935400772125
C        12.97907455668090    1.07384130667289   22.78916790865587
H        12.73799378622160    2.08057612000497   23.16488895600714
H        12.09054066962885    0.45222822887723   22.93110742028034
C        13.31203714800365    1.17328932621508   21.30143263638637
H        13.38640147337216    0.18252356124280   20.84607097501233
H        14.26984301243910    1.68401194701653   21.16678845661834

