37
CSD_code = WIYWOR | q = 0 | S = 0 | Stoichiometry = C16H14N2O2PdS2 | MND = 4
Pd        0.74687001171112    2.76581186739484    3.10367732099847
C         1.34707851528358    5.81522134028651    1.32222652914766
C         1.93729097278457    4.69888276891288    0.67603908684405
C         2.64155732839168    4.92107986028748   -0.52300205217947
H         3.09196101799282    4.06369486989884   -0.99967711756276
C         2.75216879674492    6.16704151519669   -1.07892084857150
H         3.29791008349182    6.30142566163921   -2.00073408777828
C         2.15335883036490    7.26771056448822   -0.45643818757379
H         2.23377918984895    8.24982676420050   -0.89609987333913
C         1.46924336815182    7.08546364762831    0.71359224138105
H         1.00825841178273    7.93135328901437    1.20396203727955
S         1.86838433200831    3.05262676193824    1.16566770415595
C         0.65608652930150    5.77877235130623    2.56266469710534
H         0.23806922025461    6.72640338254826    2.90559816770923
N         0.49413247886034    4.76094741193823    3.34123485065170
O        -0.23309654743043    5.07100962037234    4.52452696448082
C         0.57138635244805    5.06041045798948    5.68533260493790
H        -0.10648666496060    5.40880468817486    6.46797235152285
H         1.41495508451792    5.75742397751730    5.58293203640093
C         1.09742001163061    3.65757105557068    6.03774421138597
H         1.83639894693017    3.31309111472765    5.27467778217599
H         1.56556296099989    3.67142315793202    7.02328509418910
O         0.03683674603621    2.73333149145280    6.11560103050411
N        -0.31466245983726    2.24728635641206    4.86269080314716
C        -1.40229179583054    1.58094816144625    4.79577111343364
H        -2.03005753490052    1.49286929548461    5.68109350948087
C        -1.80793841162263    0.86968172165791    3.60713296212521
C        -0.87434663489711    0.33885488949174    2.67938975029583
C        -1.35649506916156   -0.45908961530825    1.63622011444001
H        -0.63707876629057   -0.88516304230906    0.95334839177862
C        -2.70379451969666   -0.68576015627177    1.46728293860511
H        -3.04743451011678   -1.28786599577590    0.63935383113991
C        -3.62216696625436   -0.14229349172624    2.36034816063867
H        -4.67901768742153   -0.31737587889175    2.22920465020816
C        -3.17099099223606    0.60627023960465    3.42375357404010
H        -3.87531136487414    1.01900272960873    4.13227591265132
S         0.85686073598589    0.48280716615618    2.84177174414597

