37
CSD_code = WIYXUX | q = 0 | S = 0 | Stoichiometry = C18H12Cl2N4Pt | MND = 4
Pt        0.35594972044383    2.26604837280237    6.66638193364911
Cl       -1.72703770855052    2.08890891888579    5.85224667988482
Cl        1.28651756941095    2.25831157295136    4.62504051702696
N         2.19388778504217    2.42613812240753    7.44561191792315
C         3.10263298742863    1.46045908756659    7.31883125219349
H         2.77576559290747    0.56180502988172    6.81161199794992
C         4.39700950245428    1.59979632361109    7.78224535802317
H         5.10339533385435    0.79529563850801    7.65649449004757
C         4.76892182263256    2.79273696060449    8.38677220624504
H         5.77540123140346    2.93946139422627    8.74695295649956
C         3.82710110655940    3.80080934119199    8.49963041332661
H         4.07004139949638    4.75784050169005    8.93215377759660
C         2.53997577051324    3.58110957017576    8.02288638199126
C         1.55163159232196    4.68236071833755    8.04996210334105
N         2.02534768551468    5.82476234906771    7.61176671603699
C         1.22496453931131    6.90649731979050    7.60281366670521
C         1.68163287569836    8.12368826123228    7.06433887083216
H         2.66947245035995    8.15541571902579    6.63270087972591
C         0.85952253519136    9.21738251031423    7.08472181243680
H         1.19567705121301   10.15333707256643    6.66397801886946
C        -0.42787113454288    9.14424588361504    7.64461787993032
H        -1.05156192428683   10.02578377586990    7.64201413734388
C        -0.89668341567853    7.97650323525926    8.18262333493615
H        -1.88421764379267    7.89615281749634    8.60857801897132
C        -0.07931917599528    6.83131969181964    8.16548631449989
N        -0.51841763784256    5.67535824767202    8.69646797484866
C         0.23341457652522    4.60393856584214    8.60617789128174
C        -0.36929579347697    3.40322232345884    9.22589623237827
C        -0.95906401867364    3.49964883437979   10.48106398901717
H        -0.91663116414251    4.43797368752534   11.00982855167007
C        -1.60390752717298    2.39491519039372   11.00990355235918
H        -2.07105809832349    2.44514303882274   11.98122394704374
C        -1.65542153475824    1.23067047010693   10.25560364719252
H        -2.16462517170932    0.35314163948684   10.61971051994926
C        -1.05806753724828    1.21469917565379    9.00966539460550
H        -1.09972167017467    0.34075590720678    8.37216272703724
N        -0.42116197188711    2.27386273053160    8.51213393663188

