125
CSD_code = WIZBEO | q = 0 | S = 0 | Stoichiometry = C41H79BP2PtSi | MND = 4
Pt        2.10119612524318    3.63556290080298    5.46592769436637
P         1.09355625791525    2.98718136547752    3.49301906122169
P         3.18809986232959    4.23170898109091    7.40729354150219
Si        6.16667054616250    5.46622348821872    3.16813946232409
C         0.25030131001231    3.33210024873250    6.51267994155727
H         0.21306975274132    3.70666381730518    7.53725067449407
H        -0.07715495750061    2.28981886198679    6.57419260082475
H        -0.55139003402250    3.87224563861195    5.99248567566975
C         2.48823641335413    3.66401795995617    9.04818411709851
H         1.46823673949421    4.06713209988957    9.02194471200611
C         4.99356289570626    3.77909873086871    7.33981027522390
H         5.32147398030670    4.33180195752709    6.44894433945133
C        -0.59100962611716    2.15361795665650    3.54939686364157
H        -1.12872816889873    2.75204085693655    4.29494881524217
C        -0.45339923436701    0.74013195341483    4.11593223209183
H        -0.02018327229338    0.07991631508356    3.36244408645484
H         0.21288479015218    0.75269218850855    4.98167690908020
C         1.71244490399589    6.52264654794519    7.41316433374026
H         1.34831976827386    6.10020654569216    6.46820667336304
H         1.09538047162847    6.11737988321091    8.21760674441918
C        -1.82220264247940    0.19214432923757    4.50719386385017
H        -1.71779229989410   -0.81400576331946    4.91977244921213
H        -2.26274987948775    0.82628957552567    5.27978169831498
C         3.10862751297093    4.14721878044837   10.35659419909330
H         3.23283757045207    5.23127359739675   10.36134990706898
H         4.08612211283352    3.69277192195987   10.51121549536684
C         7.57986536192650    2.46832638302443    7.63507470366830
H         7.43545445170792    1.82054084620758    8.50403563492714
H         8.60657548635454    2.33256043369162    7.28882613117583
C         2.36821319066669    2.14139897871346    9.07167085354625
H         1.97179217402662    1.79162560060737    8.11462163691516
H         3.35266249716906    1.69315728395478    9.21600453830899
C         3.16801995687364    6.08517272906369    7.59419824280105
H         3.52413397054458    6.37726719344005    8.58856588653879
C         5.16674863949590    2.30044540340055    6.99618684420872
H         4.96024143355239    1.67339065545174    7.86437295278727
H         4.46040876654049    2.03295434464230    6.20232749437681
C         1.45904597750620    1.71124769188157   10.21874365696669
H         0.45730971203339    2.11681440035895   10.06019702958080
H         1.37754945905793    0.62239326091219   10.24415085515776
C         5.00939158357837    4.06731260485408    3.61544370290127
H         5.34357568678422    3.14726909168268    3.14104992997123
C         5.91894053413674    4.14679821946445    8.49398523774930
H         5.72337480524912    3.50984278810052    9.35729293637847
H         5.77801536521227    5.18644201221592    8.79640838623842
C         2.22784834750381    1.91816990805400    2.47583485104713
H         3.02999047656390    2.62111090481029    2.21926115095252
C         0.76530404487039    4.49848832374633    2.44537109174698
H        -0.05253101340987    4.29813042232680    1.74597779841725
C         6.60076074461360    2.06129555831092    6.53558347820412
H         6.74490161709235    1.00827380166755    6.28423249411027
H         6.78629736572203    2.65313575534709    5.63736933924657
C         1.67000597024224    6.30254031305664    0.95096449883984
H         2.54618116500355    6.62425623145678    0.38435042569921
H         0.84669254200133    6.17085180592814    0.24297495372038
C        -2.84757929354864    1.55617453780598    2.67328847760037
H        -3.32343909861421    2.22745163458598    3.39256939865469
H        -3.48000368721195    1.52016415551646    1.78301230662987
C         4.04764157637159    6.73848249670124    6.53062759276427
H         5.09574203051104    6.49761229809190    6.71117672919032
H         3.77553291689869    6.32652005591350    5.55290825673740
C         7.36503589808539    3.92197914528196    8.05086716450253
H         7.59089907182044    4.57589647581826    7.20730014592337
H         8.04642351262216    4.17729997749576    8.86613239970860
C         2.19525721081036    3.73688051319207   11.51324651798985
H         2.62237788490201    4.07913215720262   12.45888439339125
H         1.22030019506223    4.21649580678170   11.39559681497120
C         1.70168387585226    1.30483380827760    1.18298956392070
H         1.21948379593891    2.06370979539024    0.56283217605441
H         0.97011446728137    0.52487145668891    1.39998192400883
C         2.42959066525007    8.64004433124986    6.28455780119536
H         2.10209975375530    8.25834763418557    5.31505053046106
H         2.32380476609344    9.72687617326979    6.27251347231196
C         3.88583521066241    8.25593885455159    6.51540837879812
H         4.22110378012397    8.66926249776327    7.47060510567674
H         4.51686117819010    8.67922120614330    5.73114296071654
C        -2.73586679531423    0.16360590014639    3.28595811059610
H        -2.32676910582162   -0.52705729296692    2.54412118928111
H        -3.72728468131172   -0.19844326851735    3.56632491557575
C         1.97407518427827    4.97441280402407    1.64194035669119
H         2.82992240929559    5.09900730961063    2.30991410571720
H         2.23669662464159    4.23606363989336    0.88247516482033
C         2.01292921863318    2.22136684903508   11.54692702993270
H         1.34014439266721    1.94762223856264   12.36246434081868
H         2.97879130351462    1.74747647829529   11.73969839395377
C        -1.47150030268907    2.11275710793766    2.30034283218718
H        -1.02667111192039    1.48116164430697    1.53160690666415
H        -1.61158934040808    3.10983753558699    1.88067129720807
C         1.56335959737104    8.03949267309928    7.38486026871863
H         0.51514076821242    8.30087035365719    7.22419720806760
H         1.86604240175967    8.45477620384288    8.35004591670525
C         1.29094368796761    7.36718616388241    1.97338430247933
H         1.08770712024929    8.31567977546483    1.47156347991560
H         2.12725801323647    7.51931343520801    2.65816201723446
C         2.87046917815782    0.83970652048935    3.34898547784892
H         2.15040788728985    0.06123203454111    3.60116983476542
H         3.21517211130991    1.30110717095810    4.28302820715635
B         3.83310771401576    3.99432703955186    4.37760294196346
C         0.33417477642111    5.58018664055466    3.43937705711823
H         1.14585978108796    5.69613277622681    4.17390420298720
H        -0.56265742169004    5.25479990305382    3.97292829858445
C         7.47044217010943    5.86575411202094    4.51745204118352
H         8.02651737518916    4.97755267335531    4.80441258151557
H         7.00742352343267    6.27196656453487    5.41203965472918
H         8.19080511982789    6.59867552159875    4.16455258316208
C         7.14544077469695    4.98508371533736    1.59602923062569
H         7.75082030234242    4.09930828696748    1.76553798657353
H         7.81392088482893    5.78096284765928    1.28061517730424
H         6.47803873545080    4.77067639551976    0.76627263152886
C         2.87050071418647    0.67675352018972    0.42317829253118
H         2.51212790315416    0.22965846599030   -0.50706257059494
H         3.59309671323218    1.45419002116099    0.16471189204519
C         5.25036983959663    7.10227444459959    2.78555777806695
H         4.68500863388714    7.02896611125426    1.86179929945186
H         5.94670512758192    7.92925004528443    2.67804503317108
H         4.55476806003643    7.36284522528367    3.57619133794741
C         3.55644423908933   -0.38655353940686    1.27783116905468
H         2.85049956476308   -1.19579236007559    1.48157100627159
H         4.39999551605856   -0.81237752130871    0.73061887360786
C         4.03871899561007    0.20628683746717    2.60019540668521
H         4.79778234250630    0.96554510554166    2.40192258045960
H         4.49732727056674   -0.57386215274362    3.21136097467731
C         0.06475227293256    6.91614846264771    2.75787946814277
H        -0.78355207353701    6.81297004639310    2.07544073649887
H        -0.20146433856822    7.66580683683804    3.50666776423362

