87
CSD_code = WIZDOY | q = 0 | S = 0 | Stoichiometry = C45H36IO2P2Rh | MND = 6
Rh        4.23471795486293   17.76965979032540    8.37814249346451
I         6.60941704352142   16.88315215072546    9.39449068106410
P         5.15606910807505   19.85304488913991    8.15466736429266
C         5.95442763175959   19.65977726254556    6.58914101690792
C         5.68630629870050   18.47532026533649    5.95601177223642
O         4.93095738349305   17.55631832618757    6.46380107094744
C         6.38878251293481   20.52826128197064    9.30813271429515
C         6.00187803629247   21.24030332273110   10.43879107028613
C         6.96056309697709   21.72146835313376   11.31051872988358
C         8.30476745506062   21.49350029717992   11.06330834193809
C         8.69218822803274   20.78093075779836    9.94092655173698
C         7.73887293683917   20.29642741100117    9.06572271306029
C         3.98221443005369   21.25352191577734    8.04961749251959
C         4.09565939362694   22.18635235735513    7.02749445922681
C         3.19426347645128   23.23165810197390    6.93727201886920
C         2.17404170317383   23.35156339075568    7.86524978474532
C         2.05711843879564   22.42505936004046    8.88852050072900
C         2.95579419891506   21.37985858820871    8.98028465713259
C         6.23044909154827   18.17954123123010    4.61003264776225
C         5.46079716875296   17.42655247076481    3.72721422830387
C         5.93728034601578   17.12898090605706    2.46481656931480
C         7.19023156414812   17.57132249560462    2.07430211527447
C         7.96553797112797   18.31068570534547    2.95279977981680
C         7.49095582880857   18.61590147396070    4.21499101796219
C         2.45636325349493   18.55753575927820    7.68448092268807
C         1.30636621414050   18.55358512543153    8.47371180136292
C         0.13390217486522   19.14726851721485    8.03395894910113
C         0.07936026977287   19.75212556667686    6.79170973148305
C         1.20487965416838   19.74723899653040    5.99038705851444
C         2.37811141880477   19.15919105857432    6.43377344514290
C         3.72855222240401   17.99356967943134   10.13111278892712
O         3.50255084510351   18.19949974344017   11.23404662890814
P         3.43578776113832   15.62179352741068    7.91461378844880
C         2.50644149646575   15.55529653845367    6.34772049384806
C         3.07772518455510   15.05625027300338    5.18224193787421
C         2.37653613876202   15.09986074721279    3.98922449440203
C         1.10364269815431   15.64153941638522    3.94444856834177
C         0.52529252003073   16.13210114274576    5.10402411333682
C         1.22034094803880   16.09161782046696    6.29740686442410
C         4.67179818293877   14.30086370518435    7.68610120243818
C         5.79353466609908   14.56114434597969    6.90026560690329
C         6.74036045676107   13.57716657007416    6.69175404081852
C         6.58019862203356   12.32727473819494    7.26717985960917
C         5.46840848820424   12.06480884099819    8.04863149084317
C         4.51411902355339   13.04447703998318    8.26050243229348
C         2.32299489827644   14.87996904504898    9.15167550470329
C         2.73653258145202   14.95468290214499   10.48032375287933
C         1.97382341741961   14.39060055394715   11.48470098733150
C         0.78825022272326   13.74506070715946   11.17007308947022
C         0.38344769843103   13.64824584648113    9.84924789470826
C         1.14839147246939   14.20592724680263    8.83909944932100
H         6.57150969500691   20.43988151438149    6.17047969467446
H         4.95398836390025   21.41959741805727   10.63517987076330
H         6.65698989772425   22.27221220548910   12.18890049251562
H         9.04945630473320   21.86720392270313   11.75023624373554
H         9.73819922172224   20.59225403904215    9.75176571914517
H         8.03466915159909   19.71958532863024    8.20080412308092
H         4.88540663514719   22.08633327296917    6.29647979002247
H         3.28555966329508   23.95222505829930    6.13734152608112
H         1.46667078031156   24.16411323601208    7.78948246438205
H         1.25944605158076   22.51349760386359    9.61158680635086
H         2.85073952056107   20.64557244783244    9.76885695992176
H         4.48498377472120   17.08481067665527    4.04247364133718
H         5.33023598597671   16.54951920811666    1.78415441092211
H         7.56500607107045   17.33618687674669    1.08885404960930
H         8.94751287159067   18.64741720829812    2.65380688879766
H         8.10840176886760   19.17409061219757    4.90296167785777
H         1.29839153081379   18.07516390314495    9.44788389044835
H        -0.73912472196984   19.13247334018681    8.67153788597258
H        -0.83269289221438   20.22076618321846    6.45213540431949
H         1.18089977224442   20.21011639010318    5.01405133488500
H         3.23499091888844   19.18188973031916    5.77338112103472
H         4.07116394854263   14.63295192589234    5.20189550492637
H         2.83216841690952   14.71173159898746    3.08962378338915
H         0.56319676767141   15.68116408945420    3.01020130619060
H        -0.46833167426395   16.55495029824499    5.07965452941598
H         0.76313819584681   16.48128097511757    7.19548349761374
H         5.92885033555204   15.54167424361756    6.46649407697476
H         7.60993924213896   13.79110733427376    6.08858351465741
H         7.32493949550102   11.56087006972610    7.11255726310583
H         5.34242727147191   11.09322234803922    8.50351977978973
H         3.65454785444393   12.82743091200918    8.87793523810186
H         3.67513481790979   15.43927728602604   10.72007391261571
H         2.30383616934991   14.45289151972978   12.51086274108436
H         0.18553435664380   13.30967164780205   11.95308640343936
H        -0.53144519597009   13.13032315949355    9.60074464303836
H         0.83475580435126   14.10788485597785    7.80986311996531

