55
CSD_code = WIZDIT | q = 0 | S = 0 | Stoichiometry = C22H26CrO6 | MND = 9
Cr        0.62556079935853   11.95607680104466    7.69934280038683
O         1.67058320065051   13.64764129410484   12.50551395482031
O         3.28448617324439   14.60971814372861   11.29989783174391
O         3.25908163285939   12.53005458943983    9.67146616055936
O         1.28948757688627    9.34214862564576    8.95903121991418
O        -2.11768194339965   10.91156944817712    8.18279345147059
O         0.17902880663467   10.20839309698965    5.33314863966184
C         4.00292751044273   12.97513150333820   13.02713393158903
H         4.38805904992584   13.80938096373507   13.61194847353420
C         2.95717956312254   13.41144067905900   11.97082498446186
C         2.92993960513208   12.19470763945597   10.99941029780209
H         1.92986817532520   11.74181280131246   11.02211804085087
C         3.97694917945050   11.23134926818754   11.60394032250877
C         3.31188486771702   10.67602827159817   12.87815171354786
H         3.87525227321728    9.82676779897847   13.26128429779995
H         2.29921275222946   10.33132722006038   12.67424289424116
C         3.33172540590081   11.86985411291560   13.85231079415934
H         3.90529955536419   11.65873023572470   14.75334373691630
H         2.32676149058964   12.16225511260294   14.15301984364756
C         5.03861861536467   12.20080240922855   12.18775693362782
C         1.63751720614447   14.99891083400689   12.90759859317349
H         1.88200034947366   15.09117985000960   13.97237259387511
H         0.62982958893233   15.37832592810772   12.73189823515026
C         2.70807981679986   15.67418262898869   12.02379727909724
H         2.28539963120895   16.37897403324615   11.30426029310790
H         3.46672912783967   16.18424088335579   12.62813588072289
C         4.44019671365167   10.16674793914308   10.63049899984732
H         3.59257632247152    9.56966998629620   10.30217120197726
H         5.16424067025524    9.51147060724118   11.10778268875640
H         4.89563258660845   10.62441761666383    9.75734127393286
C         5.76976086951360   13.05239910257242   11.15244393564079
H         6.38139111347707   13.79635760345382   11.65996513068501
H         5.08938025314540   13.56777821055368   10.48682232846464
H         6.42572959613308   12.42192429361687   10.55670218768018
C         6.11653131701370   11.52191890680275   13.03453740119795
H         6.70697370370615   12.28079185082956   13.54434095197614
H         6.78366038445620   10.95576735743549   12.38895556263745
H         5.71708041473688   10.84704327209770   13.78176614870838
C         2.30002376362324   13.03669124621672    8.86260217358438
C         1.06163093573817   13.54192375744101    9.28962206931498
H         0.82048747000069   13.59697044953901   10.34188613152214
C         0.15748283977220   14.05397667775952    8.34305149908728
H        -0.76418402707001   14.50611016159290    8.69485245210872
C         0.47597095177850   14.12146746851803    6.97774152150471
C         1.70891405918411   13.58757526203708    6.56494582225795
H         2.00023282922284   13.66626526146081    5.52303804641645
C         2.61888217062171   13.06328376116945    7.48853184931875
H         3.60223556167823   12.73130442955016    7.18375495165657
C        -0.44713125351805   14.78370983671664    5.99703355509442
H        -0.20683824393385   15.84573542823442    5.90702066123686
H        -1.48260509638006   14.69667121606698    6.31957313688596
H        -0.35326712234350   14.33142700440390    5.01191096820449
C         1.06238825245609   10.36859044273908    8.47482771661290
C        -1.06235107464893   11.35715725443872    8.01633085277796
C         0.38339402823275   10.91444942236519    6.22650558254004

