75
CSD_code = WIZFUJ | q = 0 | S = 0 | Stoichiometry = C39H30ClN2OPRu | MND = 6
Ru        8.62339315379608    9.95321361169997    1.08505949751657
H         8.59860972560361   12.91269460226183    1.71426772264755
H         7.36904234372442   12.13438969306196    0.91761157549028
Cl        6.87316716402773   10.38168724600689   -0.47524368079099
P        10.13815265428760    9.53558138526305    2.74012074297859
O        10.49955908064787   10.35263714806008   -1.21015490790429
N         8.01700283470583   12.07803952088494    1.71874197524884
N         7.13082468750712    9.69249725788145    2.36842275072218
C         9.82940720944709   10.19230058388628   -0.28765147013920
C         8.35327415543121    7.94866776806095    0.78647919634038
C         8.93524657358006    7.01041651395848   -0.04319967973211
H         9.75508803022575    7.29023756606133   -0.69123551489918
C         8.48111670541882    5.68788881871105   -0.07944801778239
H         8.96697096972988    4.98734607807164   -0.74472903556232
C         7.43693012992462    5.26145513823228    0.70791368308715
H         7.10137341896384    4.23469301913536    0.67375871683815
C         6.79170940890230    6.17365852912190    1.55307820892485
C         7.26037636823046    7.50447087076972    1.56732152698198
C         6.60755647370332    8.45712229103949    2.39845870605902
C         5.50146087262746    8.11559485576012    3.20217526952398
C         5.08516032214428    6.75293559269971    3.19490021798466
H         4.27052132978725    6.45919139155186    3.84031487021302
C         5.70085504392091    5.83542489762949    2.40551897310706
H         5.36545017755951    4.80721599257859    2.41241702630738
C         4.92847382921913    9.14763557279598    3.97831832939545
C         3.76855511404968    8.91444452489715    4.85093339539557
C         2.59353678703975    8.36043194615079    4.35009189106438
H         2.52835900730272    8.11076314261364    3.30103204101316
C         1.50751837172561    8.15934731633910    5.18220672685888
H         0.59849086162475    7.73372148901455    4.78328151896886
C         1.58254267191563    8.50281379353432    6.52183426289166
H         0.73506660975297    8.33979730877460    7.17092625251564
C         2.74574216828497    9.06101004141293    7.02560995393446
H         2.80658596710899    9.33366089781329    8.06922795399825
C         3.83037560028541    9.27215331647071    6.19479286041610
H         4.74280699709883    9.70111597359972    6.58451149450693
C         5.48531729342102   10.41550466333359    3.90482208482890
H         5.05561588553900   11.22657255913534    4.47409524137481
C         6.58155982502506   10.65852478156321    3.08020942351158
C         7.23778488582328   12.01178401168567    2.95687601233058
H         6.47060495069452   12.79946348182751    3.00691663747904
H         7.91712191004430   12.14847744540966    3.80905619454740
C        11.23504623374391    8.07960959570877    2.61582914771968
C        11.56165805457627    7.24442383251667    3.67794927159035
H        11.12968845181278    7.40549316078551    4.65587439491017
C        12.43890573609797    6.19163791145800    3.48229070796004
H        12.68399583801224    5.54030580439156    4.30892160320873
C        13.00214795560823    5.97176565741600    2.23695747638420
H        13.68284627346980    5.14607508048930    2.09114610200920
C        12.69370579354807    6.81360296759112    1.18005927179340
H        13.13721074400376    6.64848541484290    0.20943830692663
C        11.81545472199346    7.86293163835148    1.36963860777491
H        11.55912711974825    8.53044243886460    0.55762708991283
C        11.41431948808401   10.79317188687184    3.09328932633422
C        11.54602444140913   11.87417608413726    2.23088120520755
H        10.87484902847400   11.94750135110352    1.38136336837071
C        12.52809916537018   12.82454997176107    2.44996758943343
H        12.63046190325136   13.66219430783446    1.77558904709465
C        13.38363991751456   12.69638522060468    3.53145381344090
H        14.15121052344508   13.43628954836485    3.70385139102663
C        13.26145477290527   11.61416654177971    4.39003558050414
H        13.93484341823887   11.51246532622109    5.22863697425330
C        12.28432240148458   10.66142269788775    4.17227054121168
H        12.19120807930449    9.81208429280195    4.83481633859079
C         9.33621075475803    9.29822679419004    4.35960803374546
C         8.63608212868918    8.11047599401498    4.57117392603609
H         8.71053260034424    7.31628214180871    3.83887836640813
C         7.85638892058319    7.95143662425946    5.70067673785698
H         7.31255675686037    7.03072800116565    5.85382232388211
C         7.76436638946460    8.97599727210696    6.62986257503426
H         7.15451957142347    8.85051532493504    7.51248796176231
C         8.45875879710953   10.15710286286725    6.42825678818567
H         8.39133327369023   10.95499855604891    7.15417290046896
C         9.23633970746920   10.32247383437994    5.29517924985309
H         9.77918346762857   11.24599922366803    5.13905335290742

