93
CSD_code = WIZHES | q = 0 | S = 0 | Stoichiometry = C42H46N2P2Ru | MND = 6
Ru       -0.42995797322469    4.61870340702016    1.88661592598954
H        -1.90826633047944    4.12158416961009    1.92712778176091
H        -0.83394365529971    6.12187938081490    1.88926426328594
P        -0.62290597999158    4.68496423299300   -0.36023065962112
P        -0.50907978942579    4.72512508603286    4.14284263162503
N         0.32732958163426    2.54008148803838    1.86930988478446
H         2.07166909607936    5.12067579451115    0.85219753034153
H         2.13067846262989    5.73051917380865    2.37384307078333
N         1.79724456604793    4.94196393682937    1.82061026676816
H         0.13422562636656    2.12607690288462    2.78502097068700
H        -0.16465823066873    1.96776826176196    1.18090180069386
C         1.76583391423855    2.50558303119206    1.60909747507530
H         1.91627720937142    2.59762902782187    0.52370067941789
C         2.43690462593300    3.71090786750154    2.28635855717053
H         2.26784844300410    3.63652273078590    3.36908992600549
C         3.94381260176280    3.69637062065466    2.01037795188969
H         4.41644637880633    4.54729928768722    2.50880026738738
H         4.11423298060497    3.79938511494209    0.93389212204618
C         4.56865796968003    2.39325409676921    2.49978869394523
H         4.43723897650385    2.31351710898882    3.58146711811289
H         5.63979919921136    2.39585125793072    2.29066200734550
C         3.90656024373240    1.19882646367361    1.82043885900639
H         4.07893323424635    1.24928821107155    0.74251061634717
H         4.34701677149404    0.27016398032077    2.18676769735497
C         2.40568248560882    1.20061504471144    2.09220983654787
H         2.22834380951723    1.09133066332489    3.16697806971013
H         1.93210977363283    0.35648127673371    1.58378806904894
C        -0.09873571482548    3.15776598967598   -1.22417095840787
C        -0.92267464787260    2.03882073759330   -1.08558487988296
H        -1.89728032002159    2.16942079488580   -0.62877265169851
C        -0.51016325101904    0.79878038576054   -1.53541668073539
H        -1.16273579684287   -0.05740558395867   -1.43592827734198
C         0.74269501174983    0.65110985499410   -2.11242883326119
H         1.06672275255504   -0.31669872707414   -2.46621378799353
C         1.57972937964745    1.74912315267017   -2.23043157467032
H         2.55928163362865    1.63564491785711   -2.67442646507235
C         1.16897669582453    2.99109567284399   -1.77831114379347
H         1.83094877303688    3.84390514574059   -1.87180564019764
C        -2.27514961076733    4.94829935903306   -1.10451755005198
C        -3.14415905978410    5.76904907698725   -0.39476932975580
H        -2.81888338804915    6.13380583368029    0.57122163422803
C        -4.39175879810792    6.07270539823945   -0.90617826333568
H        -5.06425790033233    6.70875330312549   -0.34894714357000
C        -4.78211256553208    5.55694917833239   -2.13165902412724
H        -5.75780422173862    5.78972430160796   -2.53385319141995
C        -3.92183491476511    4.73483795218242   -2.83996909564011
H        -4.22723629531751    4.32545804843157   -3.79298040293797
C        -2.66989728412429    4.43260718779733   -2.33422620908514
H        -2.01357704619730    3.78013383754458   -2.89441310903944
C         0.25313542099962    5.95878628311364   -1.36408604399272
C         0.76422370601632    7.07090828489403   -0.70573813978029
H         0.63410288080216    7.13756598232224    0.36876217552864
C         1.39588623421100    8.08059024484085   -1.41014192968118
H         1.78940531138070    8.94117384571840   -0.88760866527911
C         1.51745659723894    7.98953757316067   -2.78620807755300
H         2.01046972303767    8.77462638783431   -3.34117498026740
C         0.99437090415872    6.89269733751885   -3.45315452106122
H         1.07719893086438    6.82604295618713   -4.52886127543823
C         0.36150993598834    5.88497910825964   -2.74996694311471
H        -0.04787177509582    5.03699030799088   -3.27974787445924
C         0.05664762470751    3.21936380105132    5.02446656867311
C         1.32713172441852    3.06911812968737    5.57651643421964
H         1.97447003546265    3.93092820366425    5.68355618227938
C         1.75957336499300    1.82955854620388    6.01531822814474
H         2.74325892014285    1.72852002462243    6.45322440035040
C         0.93922764716365    0.71877929211438    5.89637221617130
H         1.28136500857665   -0.24641942641573    6.24016808820493
C        -0.32092123420772    0.85143367367323    5.33149438039394
H        -0.96275191237115   -0.01280036903407    5.23370752629896
C        -0.75191140688483    2.08758639599296    4.88789855180550
H        -1.73032860326628    2.20613429351908    4.43516971775105
C         0.38434759319869    6.03360804865307    5.08312925334675
C         0.84406184752031    7.14242201305956    4.38297244497155
H         0.65358626549735    7.19212863293790    3.31685084746450
C         1.49217591202079    8.17435456915024    5.03825219706955
H         1.84535502630963    9.03186390113940    4.48262788285916
C         1.68069030357434    8.11024735639168    6.40828672117920
H         2.18759550795718    8.91235072542379    6.92510081831292
C         1.20334139679294    7.02000717395677    7.11873878148474
H         1.33443131544272    6.97615566461354    8.19084002966205
C         0.55406324922186    5.99006437660055    6.46418104550615
H         0.17657095342730    5.15008082393750    7.02935615299814
C        -2.13240401022573    4.98812074209255    4.95162461877824
C        -3.03185643213383    5.80356651032357    4.27451205168841
H        -2.74807553323792    6.16413116060311    3.29405451930454
C        -4.25773367068583    6.10777054237650    4.83552666670884
H        -4.95385606648291    6.73995707172220    4.30341473002942
C        -4.59614789396354    5.59786276544489    6.07880223030364
H        -5.55484612301296    5.83108285609215    6.51976236024813
C        -3.70541931205643    4.78149672410403    6.75520477529803
H        -3.96995831198984    4.37681328682733    7.72235122486627
C        -2.47472193891717    4.47922513016971    6.19960230141362
H        -1.79397653878503    3.83193561105343    6.73629349167084

