139
CSD_code = WIZNIE | q = 0 | S = 0 | Stoichiometry = C72H61ClN2NiO2 | MND = 5
Ni       11.85044478155740    6.20332933007689    1.58484132842219
Cl       13.67643684061943    6.85532116368469    2.39625411539657
O        10.00821925294526    1.63254072007949   -2.37429640146705
O        12.39842669633672    9.56409976398209    7.13771678599799
N        11.43199932767301    3.49921414317886    2.64944395213515
N        11.80970970416218    4.83999564622333    4.27875753583424
C        11.60055305057898    4.81174010251392    2.94187920434658
C        11.52338063169928    2.73064805047565    3.77962528085101
C        11.75707288309020    3.57701087292524    4.80634328354723
C        11.06271871011064    2.99612115971518    1.37448905329805
C        11.99386589309679    2.98483900872222    0.32714101382633
C        11.58953613301954    2.51990813470733   -0.90837537839262
C        10.28613869159442    2.06654232626262   -1.11699465357369
C         9.37501297176995    2.08950671504725   -0.07066979527311
C         9.75305909271663    2.56247586307629    1.17999974530854
C        13.37930487110177    3.53055088933090    0.58055870815338
C        14.11829912243081    2.78385409146351    1.66824301792305
C        15.09102322274351    3.45490406501425    2.39970090080783
C        15.85426475506190    2.77803663988078    3.33324174638024
C        15.64521454149132    1.42568407178521    3.55373804754983
C        14.66172372012608    0.75816092290740    2.84509316914712
C        13.90517048937946    1.43197883771784    1.90204037652462
C        14.26413934863647    3.57475041435478   -0.64277864066239
C        14.64464839255556    4.79734231414364   -1.17701419469945
C        15.46271274178297    4.85504972161209   -2.29148939729102
C        15.91517622091099    3.68772745209361   -2.88086627187927
C        15.55536864441780    2.46341277807248   -2.34272170342505
C        14.73857161943326    2.40669675566807   -1.22848687417692
C         8.70417601131432    1.18809708572553   -2.66120570610537
C         8.74995662724520    2.62454386464535    2.31317719434840
C         8.65622955635851    1.32609274111224    3.08698674991917
C         9.25340578247068    0.14943060000233    2.65774848650279
C         9.12925341733923   -1.01219722928980    3.40199636615929
C         8.40622467698462   -1.01137916514428    4.58116744749632
C         7.80568738113104    0.15919603127168    5.01514343454385
C         7.93063822325949    1.31848738723091    4.27369480391602
C         7.38562027724149    3.05509086959772    1.81801573821722
C         6.44799911185257    2.13169440228019    1.37226391626505
C         5.21781203432113    2.55397404176297    0.89976155507973
C         4.90800365007093    3.90302906142731    0.87069325528751
C         5.83166140280606    4.82796501138936    1.32611447030795
C         7.06086336637644    4.40532809403913    1.79868028376920
C        11.97921343628055    6.01979260456795    5.04833707638675
C        10.93319559772053    6.94452085629652    5.11862049326492
C        11.11483763868313    8.10841269007440    5.84270450259210
C        12.32136256840783    8.37579276230883    6.48335124759334
C        13.33685575417091    7.43007226767312    6.43680236195552
C        13.17507505144775    6.24799048150036    5.72951730684319
C         9.58560653470525    6.67054992886339    4.48158808252300
C         8.63763300751557    6.28795252425374    5.59645342648507
C         8.49653907439414    4.94820955504297    5.93730214042703
C         7.67200676913152    4.56499311620458    6.97955965997981
C         6.97585884444369    5.52040906158150    7.69896526711216
C         7.11509575947441    6.85840829944871    7.37147890173918
C         7.94257462626133    7.24035554681613    6.33087375825767
C         9.11409091489397    7.80865053318964    3.60737129572580
C         7.76270525738866    7.97885077235379    3.33091969106358
C         7.34007356997831    8.98901484840738    2.48461848626071
C         8.26251259916675    9.84008061739264    1.90045815470068
C         9.61254326636326    9.65799155760827    2.14772061248847
C        10.03889979258401    8.63980597558975    2.98399864121830
C        13.62049864503955    9.91666204188255    7.74189712045778
C        14.26728652089865    5.20301771850119    5.75779541791078
C        14.01470318967591    4.19435064577176    6.85870808120699
C        14.49757227312794    2.89797989177563    6.71556107690975
C        14.30976297049878    1.95877455915631    7.71287922109385
C        13.63388170361694    2.30024659597366    8.87244548957556
C        13.14870016405029    3.58746762427359    9.02452130316617
C        13.33896760630193    4.52852643021332    8.02685585580527
C        15.63840109881077    5.83888217289609    5.89710862466438
C        16.38734097680244    5.74924330502508    7.06235205509595
C        17.63351593610305    6.34918331339900    7.14240746239655
C        18.14223113655831    7.04608108768553    6.06119409789655
C        17.39534778333698    7.14376760715196    4.89832195329698
C        16.15189773590725    6.54493353447670    4.81427227940563
C        10.13958737773553    6.01168633457364    0.56959982855512
C        11.17477237563848    6.39532579465263   -0.28494291881936
C        11.94793069468450    7.49966863658461    0.07362994697422
H        11.41477416635340    1.66661459613778    3.75791028904511
H        11.87619354347641    3.39091441335816    5.85261514427677
H        12.26842323488366    2.50779721865983   -1.74553759123118
H         8.35833271152284    1.76319398451475   -0.21391209719651
H        13.25346136291776    4.58065840738390    0.92421494479705
H        15.24473721945303    4.51156936270356    2.23716067183176
H        16.61516581602262    3.30992141415636    3.88700912737729
H        16.24699681145488    0.89223848152892    4.27569644053619
H        14.48911351116101   -0.29440017189017    3.01939633922949
H        13.14474918088049    0.90193230196239    1.34413875211409
H        14.30862973491606    5.71061243286627   -0.70687470044565
H        15.75093339188385    5.81357840918141   -2.69811689110028
H        16.55284559670578    3.73038362637435   -3.75170054522037
H        15.91492816056513    1.54877404446404   -2.79182683281347
H        14.47003301948336    1.44912203724015   -0.80626587680996
H         7.96488434426295    1.97992676213644   -2.50270339557012
H         8.43501427109612    0.31446450541858   -2.05862616346649
H         8.71367765598717    0.90934331631360   -3.71351748991475
H         9.08190230730337    3.39864944818187    3.01505038634624
H         9.81984729795694    0.13594042799362    1.73743534864799
H         9.59936505156361   -1.92119073907179    3.05569664629737
H         8.30938711834594   -1.91828278151388    5.15913802112613
H         7.23763206620062    0.16704943145086    5.93376073712067
H         7.45554312919016    2.22959487401741    4.60954409158922
H         6.67578955308122    1.07527903469044    1.40908258799033
H         4.49759102221299    1.82597112827747    0.55532777200311
H         3.94759506778761    4.23060320516601    0.50119858449906
H         5.59638196659415    5.88208429118010    1.31666629799180
H         7.77188715084859    5.13446325732035    2.15919612886830
H        10.32990616351226    8.84404427699723    5.90635707917232
H        14.27494828261256    7.59781132357555    6.94037555787576
H         9.68161080069288    5.80200249418903    3.81765093557485
H         9.04111448762465    4.19203085351880    5.38700133069055
H         7.57490268669093    3.51822015292773    7.22953012453050
H         6.32896477391266    5.22431213982738    8.51146523700150
H         6.57661896209461    7.60991677098141    7.93018950159303
H         8.03787359533623    8.28642375394488    6.08112001048451
H         7.03573872647745    7.31619200609506    3.77965083837193
H         6.28582377300339    9.11232487496065    2.28182997481993
H         7.93168336649204   10.63495163814553    1.24823767893559
H        10.33726405368317   10.31350849234788    1.68555133235342
H        11.09848186182417    8.48841603520065    3.15902952846118
H        14.43740697960555    9.93132388197654    7.01407530081876
H        13.87634882987031    9.23569324213149    8.56023974434671
H        13.47254944395863   10.91856098014737    8.14180002285427
H        14.26126179344426    4.67586959921953    4.79689365555684
H        15.01725953575842    2.62656765549648    5.80967760572864
H        14.69142082237541    0.95641477622851    7.58415111395603
H        13.48603651807217    1.56804063555296    9.65248780467013
H        12.61975836116559    3.86373578841738    9.92526513039567
H        12.95381518490887    5.52930947582508    8.15791318842541
H        16.00320326067551    5.20910396467758    7.91602069131238
H        18.20661711689287    6.27035399976918    8.05546335140009
H        19.11504235274668    7.51200266622615    6.12578783208132
H        17.78285369350295    7.68900818244286    4.05045952674885
H        15.56067282517505    6.63633134491437    3.91470719170785
H         9.56496775619160    6.78760908900119    1.07183310124343
H         9.57814819627580    5.11489945297666    0.34245864886573
H        11.51625105883493    5.71334513570826   -1.06045025707517
H        11.46964276608073    8.34232429761939    0.57199683081982
H        12.81629438477828    7.76589825471728   -0.51892629414070

