49
CSD_code = WIZPIF | q = 0 | S = 0 | Stoichiometry = C15H24CoN3O6 | MND = 6
C         3.75415956077441   10.58407772664948    2.38555976758783
H         4.29187000144050    9.82924462843412    1.80927972570512
C         4.56654471879034   11.85716359748058    2.64815234385405
H         4.69331370355936   11.96809059929524    3.72687291502375
H         5.55461801149513   11.81097212129351    2.19619219131909
C         3.71803704869349   12.98796237646109    2.05683039619390
H         3.77204555288513   13.90387167348348    2.64054351827969
H         4.03141776219452   13.21231502504560    1.03553011724707
C         2.31343838562478   12.38461172251504    2.05306951972912
H         1.91220646721368   12.41016517451317    3.06849469362443
H         1.62174025344194   12.88841590249764    1.37651188493914
C         3.27242510591982    9.87655897524084    3.68002279585592
C         0.54945442272726    8.48869587316935   -0.61851946848323
H         0.06657157954694    7.58312964889114   -0.24728405075858
C         0.19165778739382    8.83051807745770   -2.06932031972049
H         1.10654550436641    8.80519133762178   -2.66461095784798
H        -0.50752195462844    8.11532096847151   -2.49632481409165
C        -0.40191214133569   10.24160349164587   -2.00040936753113
H        -0.14007156101487   10.85076008207537   -2.86230526402128
H        -1.49024306761579   10.19948359972176   -1.92709061033951
C         0.18962912643962   10.78946089900509   -0.70165987572801
H         1.23042865029383   11.07117492350898   -0.87522625185891
H        -0.35520943638063   11.64389088436733   -0.29780287932021
C         2.07091803433161    8.29392709818507   -0.38325646787183
C        -0.64065267979767    9.28054200136690    4.03202011163249
H         0.09050861043045    8.96253379673408    4.77726447039396
C        -1.95052445055344    9.80220104118682    4.63367900208821
H        -2.76523826067888    9.15928508396110    4.29449695266520
H        -1.93660419999166    9.78198715330073    5.72093025154091
C        -2.08763411222365   11.22749676934967    4.08808613991294
H        -1.67698575212583   11.95214425436413    4.79368534054130
H        -3.11918407669803   11.50035939269691    3.87831686349518
C        -1.23034973017798   11.18435381827701    2.82318463367785
H        -1.78282412363675   10.66702572069540    2.03584595901576
H        -0.92618444298809   12.16921048385856    2.46600989452467
C        -0.83392403683289    8.07379571417638    3.07564270676412
Co        1.22063993435622    9.45646739505274    1.93290696313682
N         2.52475706334251   10.98573832170688    1.65165800281933
H         2.78494613705008   11.00009996731090    0.66400396389886
N         0.14552715514107    9.64653390777842    0.22269295275899
H        -0.83795513709060    9.49188896740826    0.45119490088625
N        -0.06376722186481   10.37563028622504    3.20767571685071
H         0.48800664679269   10.94464720174924    3.85185348488949
O         2.19240050789040    9.21110602003373    3.50590975811693
O         3.85869770094490   10.00403867124785    4.73100524306622
O         2.42450245790151    8.57214136266654    0.81551614741918
O         2.81503442923364    7.95635174205837   -1.27600513989531
O         0.07722335109248    8.00368308712074    2.17884513402606
O        -1.78307928567302    7.32953143264177    3.17413100398746

