47
CSD_code = WIZQEC | q = 0 | S = 0 | Stoichiometry = C18H18Cl2N6S2Zn | MND = 4
Zn        0.98963173743415    3.36645227941891    3.15793753521039
Cl        1.96545840144491    1.67531694015605    2.07344001148842
Cl        1.50074533395013    4.24510687729820    5.11035607780900
S         0.54541008746307    7.65477892108870    2.05559259545441
S        -2.79016922411303    0.97554500910388    4.24446956698055
N         1.47177303373366    5.44670794832923    1.16977734356262
N         0.61418631463279    5.10379717594176    2.13059765162281
N        -0.90935720373463    6.01361373744508    3.64797441560285
H        -1.07939875241273    5.08812408002450    4.04463891034584
H        -1.15436491619612    6.82058712732500    4.19438538350110
N        -1.72058290130268    3.29050903057916    4.26421475211206
N        -0.92073978347754    2.55032216988135    3.49294627137212
N        -0.69393897015967    0.40816123059233    2.60602163642772
H         0.24909197037643    0.66041404418204    2.25450797008939
H        -0.97493799850234   -0.55611324730115    2.63403848951909
C         4.96799588957968    6.18911881595746   -2.61693206410797
H         4.75634629604117    5.13750490737061   -2.44601293054153
H         6.02066903942636    6.37100495016875   -2.40341284132789
H         4.79847843921264    6.41608738837740   -3.66842588421383
C         4.10816629151906    7.05583722810844   -1.74977890774041
C         3.25412581567061    6.50267230617316   -0.81178791516464
H         3.18773006182119    5.43337440463359   -0.68584127434306
C         2.45958264097119    7.31819694036801   -0.00275805054756
C         2.52533883928699    8.70276785804243   -0.14105290500473
H         1.91171623604405    9.33489146938130    0.48499491308252
C         3.37803365060796    9.25701190096118   -1.07651083156706
H         3.43166672748444   10.33006818462066   -1.18392050869303
C         4.16239459334749    8.44249567118542   -1.87347918758423
H         4.82690440327267    8.88344299771936   -2.60246235753412
C         1.58828811569061    6.70570472238371    0.96997007330343
C         0.02792234057222    6.12698852211659    2.71446363966491
C        -7.13462774114757    2.40621252321563    7.03213362903576
H        -7.71551440891634    2.91026904602869    7.79975392095865
H        -6.92290166879755    1.39065207640313    7.36200966641634
H        -7.73858534110315    2.34232870526001    6.12736092376350
C        -5.86140641260239    3.14256517042812    6.75122679202762
C        -5.60731347636211    4.38753213201004    7.31361610744986
H        -6.33824526179376    4.83334736973051    7.97226912676589
C        -4.42340526639989    5.05823739059270    7.04680385319878
H        -4.23861212893996    6.02001516992754    7.50109093037728
C        -3.47782036526993    4.50290133203202    6.20976224686686
H        -2.54501701462947    5.00422974404478    6.01064538817358
C        -3.72074058261520    3.25564500481683    5.62882819554804
C        -4.90867730071027    2.58592202737431    5.91002141684303
H        -5.09100437857937    1.61786587303989    5.46344321208949
C        -2.73336280201903    2.67009436556899    4.75319652379350
C        -1.31153235974079    1.30149047789522    3.35758648785661

