71
CSD_code = WIZRIJ | q = 0 | S = 0 | Stoichiometry = C30H28CdN2O10 | MND = 6
Cd        8.80954857926051    7.85803907363025    5.83936524862180
O        12.07588822674936    3.71284470992135    7.67718291313355
O        10.47754424575407    6.79108248073666    5.12256045465771
O         8.12681598714010    6.00889062903016    6.53230686533574
O         8.82145813973021    1.72231497362685    9.11401438259516
N         9.87749390698004    3.61005541116214    8.43153982715309
C        10.93690126552900    4.12124150719644    7.63527570443748
C        10.36840266550135    5.15340322550618    6.78932807757598
C        11.06347538719218    5.95132526836633    5.84937081478943
C        12.54489368972350    5.76563857962957    5.70119049260526
H        12.76203759327374    4.73734000489310    5.42077804095586
H        13.03413785678107    5.93895966375882    6.65677144912759
H        12.92883455597990    6.45162176411634    4.95078600948984
C         8.98644652887177    5.26313476428823    7.06461166918387
C         8.69892606640236    4.33254240947398    8.16834970807106
C         7.52353762036631    4.34850898184141    8.82305171634935
H         6.76351247753695    4.96074935680376    8.34916463149058
C         7.13834621242848    3.69407114155800   10.05597361231263
C         5.81654040617944    3.27653457004114   10.22499235971545
H         5.11143347435280    3.41853651960485    9.41894716829530
C         5.41899799699027    2.65563521732392   11.39215888286587
H         4.39893208850294    2.31724045053357   11.50177355572647
C         6.32459344418153    2.46951595533923   12.42424566553511
H         6.01355971149577    1.98508926832009   13.33802849218467
C         7.62934714462236    2.91386406834013   12.28338827037826
H         8.33355555058115    2.78430374195290   13.09228586456500
C         8.03610903865101    3.51741331727500   11.11041118991773
H         9.04897603611394    3.88029554029107   11.01385974562165
C         9.85833212073318    2.32688226173508    8.99456216894841
C        11.18875386244718    1.79162410646309    9.42532465097919
H        11.82871548641539    1.63864491774270    8.55842752657325
H        11.03326979519745    0.84943082242158    9.94393059516649
H        11.69211994652783    2.50387654501297   10.07445237602022
O         7.83539807712173    7.21856505552756    3.83855244737580
H         8.63873952011253    6.88147921714620    3.41684513198728
H         7.36129031363567    6.44435751585285    4.17450372345115
O         5.55438281873152   12.02019568701559    4.01193412666434
O         7.14102831685191    8.92617348540380    6.55451922670994
O         9.49561072972921    9.70654478033615    5.14876974788440
O         8.81701081639168   14.00249986167009    2.58036891992438
N         7.75297088178131   12.11736577965014    3.25745523769371
C         6.69182482762093   11.60728444809269    4.05203580541534
C         7.25663183251837   10.56988076664660    4.89405413436800
C         6.55845312977129    9.77074141448378    5.83072361979617
C         5.07760082788310    9.96093591430062    5.97871033241477
H         4.86386247491335   10.98873631268331    6.26350162151303
H         4.58853386031822    9.79352609065494    5.02200727779497
H         4.69070368780497    9.27301481996829    6.72580751536030
C         8.63818140563160   10.45637679353354    4.61847720762593
C         8.92871657344361   11.38915317512158    3.51747048782538
C        10.10342393416775   11.37030475593929    2.86159549523336
H        10.86152208916209   10.75380067546556    3.33299823363422
C        10.48984234211744   12.02599862341591    1.62977399484144
C        11.81344772236119   12.43737670074857    1.45970172567972
H        12.51906414894984   12.29003436854356    2.26432667733382
C        12.21234745902629   13.05890968669500    0.29334180598530
H        13.23393629853329   13.39240061466790    0.18295240993357
C        11.30614513713390   13.25189690890168   -0.73694601694448
H        11.61823829158331   13.73676573941591   -1.65013173565910
C         9.99938802343506   12.81381681587390   -0.59508057161427
H         9.29458983572014   12.94875988004279   -1.40258026386800
C         9.59136914233856   12.20961900380396    0.57711976848647
H         8.57684633545976   11.85158848837384    0.67429259871042
C         7.77741620118668   13.40254161412279    2.69925622397557
C         6.44892088039968   13.94594321950735    2.27277888730027
H         5.81083583839351   14.09802674900745    3.14120770531721
H         6.60812469183459   14.88970379367156    1.75816352488707
H         5.94136678304383   13.23896901319473    1.62115160295401
O         9.77913445836702    8.49563842307106    7.84344284728737
H         8.97353042158526    8.82945710760897    8.26324837482472
H        10.25083276278940    9.27196545184642    7.50844001750978

