72
CSD_code = WIZTOR | q = 0 | S = 0 | Stoichiometry = C34H28MoN4OP2S2 | MND = 7
Mo        0.91725467214146    4.59338347036808    4.68722653105774
S        -0.83180929074686    4.70113294269737    2.74484247418985
S         2.37528457819433    6.23263477205582    6.02752057571087
P         1.23755378765745    2.53357408107049    3.54552764693561
P         2.73021855692392    3.32013345434294    5.59511104136324
O        -0.96155312068975    3.33601135156848    6.77063803151526
N        -0.37631472134310    6.25238551558092    4.70773561163006
N        -2.00296540092371    7.04695711021311    3.16817890553120
N         2.08412186608105    5.85265886571679    3.51089495123840
N         3.36797121841350    7.76683750273472    4.08981521106315
C        -0.24078658192625    3.74762612210033    5.97322230329945
C        -1.12905487525472    6.14555801945248    3.58525742398551
C        -2.18247480424882    8.11066409088096    3.92880908770398
H        -2.89656508162250    8.83509710822698    3.56099783622806
C        -1.50172002419536    8.28767629627641    5.12889306979684
H        -1.66741306009714    9.14573636575667    5.75740470273950
C        -0.58097135176868    7.31209816280578    5.48007273617151
H         0.00833152429744    7.37901648013713    6.38914907175134
C         2.66130789801066    6.69514442844561    4.40298335493367
C         3.52966487803099    8.02733365420114    2.80254001993587
H         4.11291062949339    8.90941932734737    2.57491783050450
C         2.98311356493644    7.22490527002642    1.80922554031000
H         3.11218768534499    7.44325973636343    0.76295194933687
C         2.24089780750661    6.12890842894759    2.22517951546894
H         1.75636859634015    5.46227234140112    1.52092142688132
C         2.40558257984365    1.71687824154004    4.71792922975899
H         3.27473091115484    1.21797945732907    4.27763567020608
H         1.84288522552337    1.01626951283291    5.34355767474669
C         2.11768360588800    2.66718913277725    1.97305594898933
C         3.48068203962361    2.94663672116228    1.94153053193942
H         4.05561910336995    2.93930356144676    2.85936399337226
C         4.09926845371768    3.24055722766723    0.74069991013803
H         5.15935210926181    3.44906331815198    0.72006870047980
C         3.35974323370050    3.27589856852071   -0.43118165856880
H         3.84477012963784    3.51014143646145   -1.36734317230820
C         1.99707344029316    3.02166863939013   -0.40102308320964
H         1.41909789284393    3.06367302805067   -1.31249243492657
C         1.37230557663255    2.72502065666252    0.79611250314857
H         0.30588543622523    2.54518367396147    0.83605035267501
C        -0.00309303396246    1.25621940834579    3.20813443595625
C         0.39166829026572    0.08325258242581    2.56806714645580
H         1.41653248347191   -0.02358598754680    2.23501828411126
C        -0.52940229671189   -0.92366215607291    2.35385485211456
H        -0.22852459736375   -1.83330537546038    1.85471730702919
C        -1.84045643713650   -0.76523692413271    2.77843628222895
H        -2.55863686138302   -1.55331356282161    2.60604164266580
C        -2.23094116888073    0.39827238498674    3.42014195226347
H        -3.25245065085531    0.51802386070228    3.74854581406678
C        -1.31307873589480    1.41118090980833    3.64024372670927
H        -1.60301581895600    2.32963665257133    4.13375368886412
C         2.63800026087180    3.01356333348347    7.37803347198929
C         1.72197026526737    2.11538746294967    7.91624992033585
H         1.09036399958394    1.52380183303672    7.26748302314389
C         1.60517237160143    1.98833976776934    9.28810249438881
H         0.89600451321282    1.28683529366086    9.70215084929427
C         2.38411010417072    2.76633230578870   10.12918623689328
H         2.28466101134635    2.66816075376285   11.20007299420315
C         3.28113088456632    3.67822805327620    9.59707311676288
H         3.87892499019911    4.29551837897694   10.25126874986766
C         3.40937094694604    3.80532226056272    8.22692842276602
H         4.09987965530711    4.52362255988049    7.80496008475214
C         4.54201153154154    3.45350922709838    5.39406542867472
C         5.16570600388179    4.48010000527408    4.69890737172089
H         4.58072696288693    5.27838396089910    4.26702301608010
C         6.54391454838189    4.48700901588841    4.56110628287015
H         7.02296780284221    5.29198307124451    4.02351950587740
C         7.30231230828583    3.46914119622534    5.11224874157389
H         8.37687221316473    3.47786607833505    5.00577045657975
C         6.68355083990272    2.43770356466793    5.80359647025355
H         7.27541201827905    1.64334026136257    6.23432986895201
C         5.31012560088852    2.42769930025930    5.94408191270587
H         4.81607130605077    1.63158244810529    6.48760543210190

