57
CSD_code = WIZWOT | q = 0 | S = 0 | Stoichiometry = C22H28ClFeNO2P2 | MND = 6
Cl       -1.24282980546360   18.21102407244514   -0.16055680787437
Fe        1.50871491238795   16.62729080957354    1.08280296382718
P         3.22489438873215   17.57342403139141    0.15620367250572
P        -0.26377898264670   15.60234061065519    1.82789589083518
O         2.34550727162826   14.83815777119504    0.85416963501004
O         0.79484811591761   19.31856119624665    1.77275459137533
N         2.42682033691120   16.51134230421207    2.85694508939052
C         4.18901480677545   18.69169252099302    1.25381175938782
H         4.98927608604619   19.17674772052135    0.69499181879520
H         4.61837095989861   18.11967119676117    2.07577234040609
H         3.52425510744920   19.44893045584677    1.66561398201518
C         2.91775035924945   18.70141921130718   -1.25398649680773
H         3.84284205899577   19.19102024010756   -1.55862192728234
H         2.18845995727560   19.45077783623498   -0.95064808142782
H         2.50606744492042   18.13475782517829   -2.08690143740990
C         4.59152387572665   16.54765721933008   -0.50967704088663
H         5.38978521938752   17.18966610193723   -0.88316286295616
H         4.21181079903067   15.92493471228818   -1.31610640802375
H         4.97466624514484   15.90270489068673    0.28041477414227
C        -1.39273331480263   16.53306889132002    2.93519463206213
H        -2.19966654023763   15.89021518915982    3.28602364523916
H        -1.81004136962584   17.38379372162964    2.40347474043197
H        -0.82074191115121   16.90005672590596    3.78666668156743
C         0.09225660140668   14.16319853760289    2.91691884025868
H        -0.83940518000910   13.72229377927580    3.27201102933641
H         0.69062091300111   14.47971996926763    3.77026827684159
H         0.65450936098716   13.42281431226546    2.35147660673107
C        -1.43850535924969   14.79465563981760    0.67840531050095
H        -2.15256734833362   14.19225594247631    1.24083809410351
H        -0.86828431817063   14.16171774933197   -0.00006415049545
H        -1.96980297174807   15.54147296582363    0.09473279860058
C         0.75667086372850   16.48972470183227   -0.73890774270522
C         0.94439985209311   18.23514222183412    1.40674201682054
C         1.34716199697946   15.62714309322141   -1.66545530616285
H         2.16343626809772   15.00744657814083   -1.33030360122206
C         0.91142778399511   15.50223168748990   -2.97247322137075
H         1.41083393248814   14.81697846514747   -3.64379729481397
C        -0.15916694001613   16.25416804669672   -3.42327161486143
H        -0.50216141847581   16.17657719414713   -4.44430487347361
C        -0.80069657033123   17.09853934791784   -2.53730071369638
H        -1.65636241698217   17.68023613822896   -2.84682610178911
C        -0.33949370916534   17.18712671020485   -1.23449969065033
C         2.41837860749832   17.34648588244627    3.87886307987508
H         1.78618479886178   18.21677591927540    3.79754125932251
C         3.18969924250391   17.14564031878489    5.02992390949477
H         3.13671504146592   17.87166850816164    5.82688892922249
C         3.99667089985319   16.04376856316576    5.12769753595046
H         4.60622410954265   15.86950676748536    6.00251548114944
C         4.02293909558368   15.11481555825315    4.06418618119930
C         4.78820022662850   13.94020261370988    4.04554882005532
H         5.42125667169962   13.70936481584794    4.88872019615072
C         4.71807989434210   13.09391183351959    2.95986911732847
H         5.31057759683884   12.18941872772986    2.95762486264418
C         3.90678468721815   13.35945610807102    1.86551475542270
H         3.86432316670221   12.67412221801445    1.03258743899628
C         3.12766666056553   14.52013353246570    1.82331795294632
C         3.20391193885289   15.40733029742338    2.94473666396477

