49
CSD_code = WOBBEX | q = 0 | S = 0 | Stoichiometry = C18H20N2NiO6S2 | MND = 6
Ni       -0.00021072394749    6.36376433844322    0.00012254161283
S         5.03397457611455    4.44236323188763    3.41331412534403
O        -1.00513170743710    6.69415522241892    1.63744877959405
O        -1.47283873481355    8.84906256538673    1.35130688724557
O        -0.83674344777022    4.05234553356550   -0.05003262665872
H        -0.02158030614570    3.82809956119863   -0.56474374098443
H        -0.74372511160272    3.60271339637649    0.79206635313593
N         1.52449414444437    5.91411761169011    1.04598213825184
C         2.73990797496448    6.35845822303969    0.69535639927376
H         2.77259047117825    7.04901667095949   -0.13415879340945
C         3.89990955780961    5.98509974970685    1.34146214167083
H         4.85668157494285    6.36619791827039    1.02400875894256
C         3.78794413498331    5.10520318688358    2.40790128082880
C         3.85073438447568    3.57647384434834    4.33971019375604
H         4.19033381327721    2.96597563034328    5.15365264997643
C         2.58313708480492    3.76998594396214    3.92197791577123
H         1.72169051689921    3.31530301017278    4.37571349136791
C         2.51188078921734    4.65081104467280    2.80160698296778
C         1.40719096955791    5.09609866732968    2.07849611211160
H         0.40763822499320    4.79970159755461    2.36728152981649
C        -1.56606117506613    7.77998667973543    1.96186039672081
C        -2.40828294428948    7.71301767581402    3.23518412136994
H        -2.73372916893658    6.69386285982838    3.42151716408478
H        -3.26183565603111    8.37802097501371    3.14160166980444
H        -1.79452269832391    8.05028179388716    4.06790604760214
S        -5.03346600088975    8.28485111116733   -3.41458757051397
O         1.00449637573246    6.03305009606528   -1.63751279031165
O         1.47387222275043    3.87854025740213   -1.35004696893960
O         0.83615198053077    8.67455340978861    0.05046095599989
H         0.02070720231359    8.89771330607466    0.56554697176714
H         0.74212737452075    9.12395409940841   -0.79144894416367
N        -1.52488623954399    6.81285068252056   -1.04589360062932
C        -2.74058838119508    6.36925967323204   -0.69519711568912
H        -2.77372145718850    5.67917304047839    0.13470762622942
C        -3.90036086375338    6.74286229391763   -1.34159253964985
H        -4.85732540889050    6.36210454487531   -1.02428595359628
C        -3.78795093200996    7.62235927544307   -2.40833547122288
C        -3.84979836410238    9.15070185212451   -4.34047401032492
H        -4.18896311496644    9.76087420209333   -5.15484610993220
C        -2.58233291445809    8.95664266354511   -3.92260970609097
H        -1.72062094098402    9.41070438721886   -4.37646321118195
C        -2.51161527789623    8.07602385207897   -2.80204482848396
C        -1.40721571740642    7.63039487740472   -2.07874592911160
H        -0.40755217054599    7.92655006697822   -2.36739376437928
C         1.56691160288732    4.94755107185805   -1.96088564136076
C         2.40839213612658    5.01415454810399   -3.23480721842563
H         2.73398226153239    6.03319420587383   -3.42153536838041
H         3.26190113568781    4.34907935909806   -3.14119000533125
H         1.79440894844541    4.67674019076272   -4.06736132647312

