93
CSD_code = WOBDUM | q = 0 | S = 0 | Stoichiometry = C43H44AuNP2S2 | MND = 4
Au       -2.13732980154094    1.40049474704777   11.95247469205601
S        -2.16685411682794    3.31538321435978   10.10622112167093
P        -0.32521701612250    0.01597025533611   12.27551771168863
S        -3.19255352893769    3.53562971895132   12.81858109174804
P        -4.10067186136972    0.32550525837749   10.98286851932343
N        -3.49043482306650    5.44163189984073   10.99696424941176
C         1.30553071756772    0.80557370687169   12.25920103787093
C         1.40954488327445    1.98277237861481   11.52157797202824
H         0.53364095356469    2.37047747542318   11.01517973803319
C         2.62038948138918    2.64521603071006   11.45032964613188
H         2.70231057645772    3.55626379405569   10.87618957460733
C         3.72230387784249    2.14389754295091   12.12524938588771
H         4.66740211235136    2.66463682421857   12.07630376525033
C         3.61425290898692    0.98110589469526   12.87166651316317
H         4.47388464235323    0.59838500606819   13.40267990947428
C         2.40866726434714    0.30678263837494   12.94298512510297
H         2.32167453928466   -0.59759189197788   13.52921227554445
C        -0.32869237917102   -1.00663611321556   13.77212586964292
C        -0.95999330261385   -0.46554293410469   14.88863140449875
H        -1.40952115770809    0.51765634254662   14.81311814886700
C        -1.01679406822988   -1.18395313555020   16.06854715498604
H        -1.50902699022632   -0.76357210323672   16.93305932497881
C        -0.44768941857679   -2.44560197747577   16.13480187999852
H        -0.49481776471019   -3.01107663474282   17.05389998840158
C         0.17886411866671   -2.98781226553328   15.02319784821053
H         0.62031958725166   -3.97245111589699   15.07893441889835
C         0.24088717829900   -2.27468404674540   13.84009584289026
H         0.72180647108195   -2.69838359741239   12.96858818638820
C        -0.23300541793705   -1.19219281307462   10.93009008909341
C         0.64420301239319   -1.04070934748905    9.86210113370502
H         1.36103817042013   -0.23119728299102    9.86410727702928
C         0.59620662443775   -1.92954575211339    8.80328322591894
H         1.28133801230651   -1.81310916903508    7.97618552168424
C        -0.32352502273389   -2.96449023097450    8.80090292998165
H        -0.35405569978088   -3.65885175103074    7.97449204978470
C        -1.21166527975503   -3.10637897057654    9.85550345864807
H        -1.93665342078099   -3.90696686895756    9.85042694958431
C        -1.17814766312200   -2.21674755210350   10.91026471710728
H        -1.88006530009410   -2.31417785755063   11.72904287323199
C        -5.01351943058047   -0.81349535896019   12.06203508296255
C        -4.30976137793457   -1.36779688727517   13.12579009951758
H        -3.27448867706057   -1.08282320999161   13.27835780440439
C        -4.93002592293479   -2.25374925784914   13.98695666080000
H        -4.37761043420110   -2.68128698330116   14.81151845870130
C        -6.26182923088408   -2.58149403770918   13.79254260897145
H        -6.75174620838535   -3.27048809769625   14.46488301336592
C        -6.97199927372558   -2.01900054202113   12.74258154245878
H        -8.01294752393503   -2.27131508594776   12.59973668252795
C        -6.35488019895430   -1.13547378071781   11.87667750735785
H        -6.90669230320003   -0.68869530563828   11.06040117054255
C        -3.77756905638460   -0.63888284455657    9.48176554849788
C        -4.36383684093437   -1.86620543347452    9.19845407865180
H        -5.07383843625972   -2.30208539550004    9.88751563699286
C        -4.03249442388010   -2.52670193240783    8.02900460210376
H        -4.49302821161920   -3.47820072880742    7.80337329921981
C        -3.11715629836128   -1.97498549678403    7.14788681101023
H        -2.86643379833853   -2.49641458995366    6.23556707120393
C        -2.51856235458574   -0.75921370611170    7.43789656762096
H        -1.79749289066586   -0.33200885241697    6.75664567159494
C        -2.84150296833676   -0.09423870685908    8.60445738339072
H        -2.37571508941489    0.85244757132264    8.84886970400162
C        -5.37291495658841    1.50463160563032   10.47256536217434
C        -5.57726094589440    1.87925511573835    9.14980126343256
H        -5.02314882452287    1.39604275408589    8.35721035106274
C        -6.49114267958133    2.87513108055050    8.85585527994603
H        -6.65492874781510    3.16324073347470    7.82719684987203
C        -7.18956666107419    3.50617759373222    9.87223359539146
H        -7.90391957928791    4.28218565405980    9.63428996573272
C        -6.96687129975895    3.15086738304463   11.19436668283054
H        -7.49804415079235    3.65397647166896   11.98966234371739
C        -6.05538546291182    2.15971404685622   11.49749051532510
H        -5.85539183295594    1.89072246660181   12.52689392124496
C        -3.00181433628123    4.22531004584872   11.26485283228443
C        -4.24372480014733    6.16928072509830   12.01535541986469
H        -4.41396211157778    5.45786628006710   12.82761636786974
C        -5.61198731410344    6.61892476368245   11.50458550393607
H        -6.12096977407725    5.78602101491381   11.02642315159158
H        -5.54190349585457    7.44234553231780   10.79737997633672
H        -6.21008591206087    6.95142496845355   12.34934696625721
C        -3.43100930262356    7.33650575427642   12.57443441196908
H        -2.47688756308035    6.97410425921055   12.94951324896996
H        -3.97341532832195    7.79408262317666   13.39761279365520
H        -3.24617115683875    8.09690153821875   11.81847039617678
C        -3.24553050767722    6.15438693714529    9.74184196062726
H        -3.70955879766100    7.13471300845429    9.87585877044294
C        -3.92947334567017    5.48428936456096    8.55013946903693
H        -4.98366507234759    5.32237458069003    8.76272506354129
H        -3.46984540469944    4.52626028537068    8.33105089281201
H        -3.83907093097884    6.12518496780435    7.67646444785805
C        -1.75754389069408    6.39667312819395    9.48422870680747
H        -1.28943269405702    6.83382231479046   10.36347623203065
H        -1.64650804638082    7.08357442459765    8.64864271922209
H        -1.24888522185875    5.46930792376375    9.24329490963745

