60
CSD_code = WOBDAS | q = 0 | S = 0 | Stoichiometry = C27H26Cl3OP2Re | MND = 6
Re        1.57101004907694    9.56216734453854    3.53010282406827
O         1.70124598054947    8.21036032817670    2.56892659944570
P        -0.85156253660007    9.62162537839086    3.20387183498199
C        -1.53792602297348   11.18360675275871    2.59727953538302
C        -1.73143236985182   11.36360119299569    1.22972942223612
H        -1.51564330486509   10.55694979751556    0.54467234476614
C        -2.18831100503546   12.57599225596734    0.74869287574161
H        -2.33182803836589   12.70991880456485   -0.31315862422857
C        -2.44858334021563   13.61905239666602    1.62209310037347
H        -2.79786789254228   14.56801021253824    1.24313761495820
C        -2.24798581122669   13.44687452446125    2.98143482118885
H        -2.43651629631364   14.26245911456340    3.66396079802933
C        -1.79168716427499   12.23722399591333    3.47188462526001
H        -1.60944376047823   12.12705758927908    4.52990242084582
C        -1.40752574711799    8.38665921931144    1.99350653723562
C        -2.58986147447416    7.66459133577287    2.10972546747076
H        -3.23969502812539    7.80163866647977    2.96093358878612
C        -2.94358729043570    6.75683884515820    1.12631273669445
H        -3.86064391609229    6.19433523768410    1.22412174761820
C        -2.12910243746562    6.56798132685643    0.02256718918896
H        -2.41077943205353    5.85722657948229   -0.74001755036873
C        -0.95156118604133    7.28850775642857   -0.10012449197834
H        -0.31306924826115    7.14216113283834   -0.95810999058182
C        -0.58957002758923    8.19216009318862    0.88122551315041
H         0.33868514871184    8.74535550232189    0.80426061905225
C        -1.77523986495582    9.27512401137852    4.75661993694810
H        -1.60840420094964   10.11559251784158    5.43323731935496
H        -2.83917960279985    9.25680854641753    4.50370038372209
C        -1.34156558149068    7.96737987318150    5.42758126894175
H        -1.09913061944168    7.22647957582198    4.65787115120199
H        -2.18015169721215    7.58126054101280    6.01321568132492
C        -0.13967646930366    8.14892179990901    6.36175997175398
H        -0.11736710919579    7.37169912586599    7.13168417927654
H        -0.19351830362283    9.11520190461727    6.86943731514743
P         1.47781081329224    8.08677163988383    5.48688945418578
C         1.73306767939969    6.36641973815834    4.97600088965636
C         0.94859124338981    5.29684669665352    5.38986720019716
H         0.12062931897201    5.44679977108835    6.06637114610682
C         1.22818803405027    4.02034854006590    4.93110109739172
H         0.61349285705346    3.19179964357164    5.25151800806545
C         2.28630159045920    3.80414341575483    4.06511706208198
H         2.49600389440826    2.80633873106268    3.70938689661890
C         3.07343611268059    4.86837671581056    3.65201008534310
H         3.89765878293344    4.70205089782067    2.97513528533235
C         2.79819139809126    6.14521658067819    4.10211716981971
H         3.39670426610208    6.98765902779011    3.77741791154464
C         2.68688859213798    8.36553451768448    6.80715813272940
C         3.70165025061610    7.44752026312450    7.06064087233890
H         3.76553373995604    6.53680038131904    6.48324807443650
C         4.63321787851647    7.70436815891642    8.05019750755672
H         5.41916486535559    6.98877449256808    8.24184993253967
C         4.56701806855963    8.87614004045473    8.78489351427030
H         5.30224270116766    9.07691150599345    9.54992550310642
C         3.56246986412019    9.79545058036062    8.52958932081903
H         3.51531240638911   10.71612800907385    9.09201600043529
C         2.62409755471790    9.54475648254841    7.54668108442292
H         1.85990081263578   10.27722090459301    7.33291388072053
Cl        0.96895684955621   11.15507417357466    5.05337712889279
Cl        1.71486381130666   11.21544419837907    1.89704035195564
Cl        3.80128221517504    9.92258161315444    4.07059772244220

