53
CSD_code = WOBFEY | q = 0 | S = 0 | Stoichiometry = C14H24N2O10S2Zn | MND = 6
Zn       -0.53660806022651    0.00034659752744    6.24674586956115
S        -7.45445943472821    0.09999778338694   11.01789883105396
N        -1.99094540181932    0.55231219317646    7.41378633582177
O        -7.98462995137314   -1.24796980791875   10.99433521215359
O        -6.88439347665953    0.53698646054298   12.27562814638548
O        -8.21941253378847    1.09609290089384   10.29614111139041
O        -0.91346007168880    1.78895259528479    4.92863552457022
H        -1.26743646233478    2.55126609532303    5.39754784227850
H        -0.14267215184919    2.09628447818940    4.44070697888872
O         0.86924868215599    1.40864827606632    7.31699297641512
H         1.82209485966908    1.29869933879213    7.24007916427888
H         0.68419491975005    1.70355914336278    8.21374959926379
C        -3.17232093029941    0.99015420495816    6.91777151402925
H        -3.22104572604710    1.09253667079077    5.84287789711311
C        -4.24751787680873    1.30836858118317    7.69786357854384
H        -5.16260930896652    1.65136103345240    7.24180838729249
C        -4.17756023843403    1.18192739871637    9.09892278605594
C        -2.93512721934679    0.75562374143224    9.60732962112438
H        -2.80407288011401    0.65708512652631   10.67321528935378
C        -1.90540286530072    0.45543899031301    8.76144304992011
H        -0.95368907227219    0.12028710975520    9.14900884304162
C        -5.36171181064263    1.32680360255752    9.95381532477259
H        -6.12238049742810    2.00064994124628    9.56258868219106
H        -5.14425810866404    1.59036685580270   10.98764033504464
C        -5.92468771461739   -0.07951552677757    9.93424411638718
H        -5.29478352875551   -0.82192755770972   10.40996169132961
H        -6.27469885965379   -0.40912435695038    8.96308408303366
N         0.91788420929196   -0.55163672164659    5.08000391658157
C         2.09927478223126   -0.98920293976430    5.57621697179807
H         2.14798994539686   -1.09112540399529    6.65115516398546
C         3.17448247876884   -1.30775054075778    4.79626994590993
H         4.08959257642546   -1.65047341476962    5.25249208149409
C         3.10449746667040   -1.18203933623702    3.39514905916574
C         1.86206344596679   -0.75596729798207    2.88655394216020
H         1.73099648075835   -0.65795703828993    1.82062074939623
C         0.83234878597616   -0.45536701943154    3.73230349207399
H        -0.11936576349869   -0.12040916591051    3.34457659486401
C         4.28860263056846   -1.32740535452856    2.54027034544739
H         5.04933214529162   -2.00095024526420    2.93189869517689
H         4.07108474193608   -1.59169198281081    1.50664065544071
C         4.85152147978499    0.07895273512144    2.55879338275910
S         6.38106567993194   -0.10122124607067    1.47493800121743
O         6.91123437610577    1.24676422991432    1.49752086278755
O         5.81072811647197   -0.53900532248816    0.21760549762884
O         7.14620242052767   -1.09685673551628    2.19713825407374
H         4.22149649960811    0.82100362047908    2.08267099964407
H         5.20166875597471    0.40924876901451    3.52967097282852
O        -0.15982672241732   -1.78865577461105    7.56447712259559
H         0.19415639713326   -2.55073352021664    7.09518727214457
H        -0.93041126994311   -2.09629384980472    8.05252414582169
O        -1.94303264841715   -1.40736427799590    5.17665556969346
H        -2.89578140243400   -1.29791353016620    5.25540475977987
H        -1.75945988783878   -1.70116050617951    4.27923875425391

