47
CSD_code = WOBGAV | q = 0 | S = 0 | Stoichiometry = C16H20N6O4Zn | MND = 6
Zn        1.96983316787879    2.76365895198439    1.13612428069193
O         3.35523662520562    1.33389900901812   -0.25889050850537
O         0.55754717969073    3.09118582051859    2.57331151715891
O         3.76274492101464    2.33650583903635    2.74718390066608
O         1.16805489978776    3.73710454204900   -0.46188999381766
N         1.36420508697413    0.96682900663677    1.36992912988835
N         0.37608685713252    0.84688817632995    2.21946838322870
N         0.01672095434007    1.92291181783021    2.77762163989892
N         3.23331738992147    4.19154509585555    1.00366392611668
N         2.93318632611667    5.07305436824486    0.08463085445449
N         1.90773560328141    4.80195410106494   -0.60351800261871
C         4.42963691730638    1.60615896442777   -1.12351186697744
H         4.60049450188778    2.67959609712560   -1.06203588351034
H         4.18873793886344    1.33528400186697   -2.15671135904709
H         5.33802529685884    1.08146245509333   -0.80910239859936
C         2.93511845850667    0.03562755390261   -0.12759689642872
C         3.49126797119341   -1.05045224863569   -0.77785211055772
H         4.31667804450806   -0.92294740862676   -1.46063293477435
C         2.98895511805066   -2.32727946602290   -0.55838493246717
H         3.43366658909606   -3.16486263630502   -1.07398416663222
C         1.93161877147561   -2.52344978769016    0.31001967438457
H         1.54557244637737   -3.51772198776376    0.47757312978551
C         1.36428876754514   -1.44667496188194    0.96580985988875
H         0.53726295101425   -1.57962250747006    1.64518913461502
C         1.85226446378968   -0.15875957040901    0.75716901925837
C        -1.08886775318899    1.86099738259395    3.69877312756266
H        -0.77262392394400    2.24228347791987    4.67058500047970
H        -1.41308425425300    0.82677906926793    3.77963391815719
H        -1.90263474590419    2.48708761924542    3.33003925464448
C         3.99958609842087    1.28689589133774    3.65211085245325
H         3.20868382267917    0.55827343946492    3.48156022451742
H         3.95482997884950    1.63580677685684    4.68911970416536
H         4.96875005768159    0.81176787763941    3.46680376931817
C         4.64133576455309    3.38870128775236    2.72263744528083
C         5.75339228946006    3.51522135192282    3.53454424147281
H         5.99193825542857    2.76005367658754    4.26709178617077
C         6.58068745520991    4.62525328789717    3.41668756754483
H         7.44448537049871    4.70977657339394    4.05848569627864
C         6.30061893116281    5.61097673467788    2.48904067442849
H         6.94611208197054    6.47205778733680    2.40209003918809
C         5.19169065594281    5.49821595419889    1.67120332515063
H         4.95520381663744    6.25863522620662    0.94390752655407
C         4.34946500032534    4.39363742445447    1.77512403658825
C         1.51093643293398    5.74934506498319   -1.61325861331830
H         1.47164857717481    5.25076993169845   -2.58267845878657
H         2.23414139897560    6.56059768387638   -1.62834293765641
H         0.51594744156919    6.13137125450777   -1.38034157629461

