93
CSD_code = WOBGEC | q = 0 | S = 0 | Stoichiometry = C39H47ClIrO3PS | MND = 8
Ir        5.26855226405693   11.44333684963244    6.81877502312872
Cl        4.79832023558833   13.02298977741758    8.43414248168858
O         6.71564844722498   12.85339301771003    6.12689723997507
O         7.27581186963231   12.54339704367933    3.78260140260544
O         8.92209158798098   13.43149142044498    5.37289747288819
P         7.24436362144692   10.99468914089090    7.95260667158390
S         7.79347324906639   12.57353169346679    5.13180819133772
C         8.39322162428950   10.89883799093530    5.44266919392444
C         8.20538379476135   10.19541523845221    6.62807966090497
C         8.70163202452475    8.89269261461117    6.70103764699446
H         8.54989100646727    8.30102966389872    7.58963395457321
C         9.39987821540933    8.33931608482852    5.64063146464049
H         9.77907396972388    7.33104191942198    5.72238266775680
C         9.61302147497166    9.06979702317181    4.48296659535223
H        10.16525174470388    8.64088720756367    3.66104995502675
C         9.09743337588854   10.35239758324220    4.38938684756471
H         9.21407841959589   10.94985645984178    3.49916578999488
C         8.38806685655367   12.36712188857911    8.47757084805435
H         8.27587501213366   13.10224782139853    7.67155917363022
C         9.86677798784974   11.97487206025091    8.52232181061783
H        10.16143378793418   11.47329957859229    7.59828587750490
H        10.07104995234811   11.30689836396592    9.36058352738403
C        10.68938816967664   13.25264713798854    8.68236386874736
H        10.50870181086145   13.89174052696961    7.81655255562351
H        11.75300376703074   13.00447476942273    8.70520640982759
C        10.29824544498638   13.98629294603792    9.96224776836059
H        10.53246897075942   13.35811867955932   10.82642820115829
H        10.87951820291777   14.90556569691120   10.05338548024370
C         8.80749804910711   14.31268469632119    9.96129368411124
H         8.53179646919309   14.80735479372764   10.89484677245189
H         8.58655207262466   14.99524468490925    9.13961104650196
C         7.97900803112024   13.04144574142210    9.78680368840792
H         6.91727113385137   13.29025216247939    9.76634817435552
H         8.16470056257172   12.37641182022933   10.63348108319611
C         7.06990470861668    9.71391367491662    9.29403315607385
H         6.75471925880516    8.81281726003546    8.75198263371297
C         8.30110861201397    9.37417199132381   10.13150094430784
H         8.56847540880906   10.22794051693104   10.75410498533154
H         9.15966908535851    9.13120851877086    9.50314138236029
C         7.97475871286996    8.19066178492065   11.04392136838263
H         8.85237038359974    7.93580758310176   11.64170028945351
H         7.72178267722576    7.31850856590715   10.43574534229987
C         6.80182306007014    8.52650077721716   11.96112629942279
H         6.56395141061404    7.66527798939139   12.58816708029975
H         7.08462752313576    9.35034958087587   12.61938842912151
C         5.57844856373189    8.93435563315770   11.14464946997698
H         4.76094014830808    9.21560680790976   11.80967573245967
H         5.23734130473636    8.08642921644819   10.54542340863290
C         5.91910339593185   10.10246792352753   10.22409699599934
H         6.19840087604343   10.96976660480994   10.82173872455837
H         5.04366335489193   10.38062620086536    9.63623374781631
C         3.59225404228959   10.08489502166799    6.89432458928702
C         4.59152449714821    9.40397524385081    6.09206512725343
C         4.84113185395721   10.19307614672147    4.95081619533757
C         3.95103723165108   11.33005586342598    4.97781875877517
C         3.14777945227730   11.24703347833023    6.13042787014272
C         2.87583283362199    9.52671076570913    8.05099076013115
C         2.57073756265673   10.32875900374758    9.15270910230637
H         2.87992724632967   11.36339431584558    9.15838338846212
C         1.92192383061259    9.79727087178314   10.24799819250729
H         1.72262502659764   10.42707562678389   11.10180697544783
C         1.55405068894705    8.45356890856247   10.28264609973168
C         1.82847497521512    7.66454573703390    9.16812440422504
H         1.51409245573494    6.63092146263776    9.15665862727046
C         2.47366577940731    8.19184314545490    8.06722420575047
H         2.64433548092435    7.56830944742616    7.20282736942717
C         0.89725555339015    7.88122585576296   11.46590037736194
C         1.26380008848148    6.62319028289826   11.93879012821376
H         2.04792669325813    6.07414094604610   11.43754007942782
C         0.65315562108587    6.08575560926933   13.05631438765809
H         0.95191275137616    5.11162696011038   13.41575203546077
C        -0.33760033126042    6.79326341108488   13.71623485751148
H        -0.81610479330834    6.37157253824889   14.58767636296531
C        -0.71108687726636    8.04412946141102   13.25374332862005
H        -1.48543799480552    8.59889155914014   13.76323319751224
C        -0.09696195968655    8.58613742172695   12.14021558310786
H        -0.40210251637300    9.55576164482357   11.77490875666213
C         5.19727559691674    8.06676241847592    6.37433637901651
H         4.72315234713632    7.30933610033708    5.74757294108326
H         5.05430563951853    7.79061695614427    7.41612932767721
H         6.26287593020347    8.06382441115350    6.14665914734951
C         5.70863241816459    9.84822742472278    3.79174929719396
H         6.38930331291524    9.03363421937480    4.02982500834645
H         6.28947387033959   10.71772538987814    3.48143316344953
H         5.08602642509085    9.54541809006533    2.94791774267754
C         3.88620273610995   12.34616642022895    3.89143142424182
H         3.31343359112961   13.21679302738347    4.20013661206078
H         3.42550386493644   11.91413021299676    3.00109906248876
H         4.89472463147770   12.66565760589499    3.62622092289528
C         1.97545362024976   12.10708035063662    6.47895832633963
H         1.52330048732376   12.51110576262036    5.57583961568434
H         2.27475575584141   12.93939524424997    7.11648520688249
H         1.23415888876823   11.52141090833693    7.01982284169013

