104
CSD_code = WOBJOP | q = 0 | S = 0 | Stoichiometry = C55H42AgNP4S | MND = 4
C         7.17310872047631   11.70022374079141    2.95483210401505
C         8.27380594526862    7.20926992762809    2.59205856178037
C         8.95200973608141    8.21959264893616    1.91320158713190
H         8.56253997742112    9.23203540550103    1.94074551404132
C        10.08637645389255    7.92318041022281    1.18051616297675
H        10.61139836424070    8.71179897608392    0.66210821328443
C        10.54583180909811    6.61778177190976    1.11510741580249
H        11.43555189388345    6.38330934646203    0.54892635486958
C         9.85982866136324    5.60831199712788    1.76931822778262
H        10.20997699744315    4.58760154883610    1.70755699457207
C         8.72643176238216    5.89748480125068    2.50852421893126
H         8.20164530477073    5.10204297015971    3.02146980438803
C         5.59353650932732    7.75407436956211    2.15511819911551
C         5.54507453016825    6.75680890595233    1.18434984798739
H         6.23885037591809    5.92761377204083    1.22809465336215
C         4.62093601571664    6.83839466841112    0.16000346092544
H         4.58250689958560    6.06311427184044   -0.59198563415765
C         3.75121983627886    7.91603352819478    0.08882457151499
H         3.03427450968713    7.97610351193926   -0.71691891751440
C         3.81218018911680    8.92158797893948    1.03869793496454
H         3.14899628742726    9.77144160534494    0.97261033885924
C         4.73281259554035    8.84227818840540    2.06799612820258
H         4.80312047985322    9.63540267670267    2.80337447223686
C         6.40367352199282    6.19986339247126    4.42144228176597
C         5.40810771135354    5.28849975028211    4.10310474561853
H         4.76256121254157    5.46136518953289    3.25384974126461
C         5.24512692018103    4.15609016678907    4.88394502356365
H         4.47620090068134    3.44029097940819    4.63189004673364
C         6.05379140025406    3.93624240698963    5.98812986007661
H         5.91699695222196    3.04770857988503    6.58762542313279
C         7.02242012442617    4.86105241592145    6.34001552857988
H         7.62287261339887    4.71449445295588    7.22783870171698
C         7.19790452994937    5.99205086261552    5.55759203232458
C         9.91457086192791    6.70426519906214    5.25100045366472
C        10.32371576269534    5.37996630570855    5.23957483753909
H         9.68234070145741    4.60793780717769    5.64296817842780
C        11.54831708944069    5.05364719649305    4.68148399258466
H        11.87924460586490    4.02503593925438    4.67682429297840
C        12.34009295867581    6.03713748830880    4.10987283166143
H        13.28360844465759    5.76925405942618    3.65701580826227
C        11.92967648728100    7.36017237880397    4.10250183443678
H        12.54365616642203    8.11697927028996    3.63570675969367
C        10.72472143490466    7.70431743983646    4.69624834640847
C        11.32001156503958   10.41004874834628    4.05032218509001
C        11.02237311072121   11.14313423472703    2.90660267110197
H        10.02597418743940   11.10403433430635    2.48505671226046
C        11.99447427966597   11.93830563530529    2.32359386921857
H        11.75857123230184   12.50704496878150    1.43638843654815
C        13.25986350163006   12.00984757124824    2.88024784009441
H        14.01815340952610   12.63078506407835    2.42561772805280
C        13.55374756012020   11.29379180469705    4.03115150675340
H        14.53799615625602   11.36006995104811    4.47296546782185
C        12.58890410833264   10.49878146930133    4.61936750888056
H        12.81449725854208    9.95030868093510    5.52456890769237
C        10.28133313499766    9.77586220791571    6.53995651824092
C         9.64601104570751   10.92621284476344    7.00338928388398
H         9.06577641550544   11.52284135660969    6.30010178564678
C         9.78263830227934   11.32203179674993    8.32063328545086
H         9.28327882143012   12.21199740564683    8.67479917869746
C        10.56108603269612   10.56981446327717    9.18574314340714
H        10.66524117335570   10.86953619419054   10.21813420923660
C        11.21239771587699    9.43764617930916    8.72647101543851
H        11.82895982809941    8.85853095266417    9.39892778835691
C        11.07518236852183    9.03670178482182    7.40893496787787
H        11.58349237028379    8.14698623874485    7.06105247458018
C         8.55077670301088    7.31786507260119    7.66406529218992
C         9.37192112354978    6.47791125034367    8.40005511151280
H         9.95650695052363    5.71483988817697    7.90418635385322
C         9.45788230577434    6.64448910782818    9.77202917159220
H        10.08964251517485    5.98867844241345   10.35380656408646
C         8.75550687545604    7.66249026771162   10.39865356987379
H         8.84814430506684    7.79846479442910   11.46646056969054
C         7.94465082288201    8.51512926206633    9.66840389513793
H         7.41880921323046    9.31992478669714   10.16196549788341
C         7.81635860925143    8.33019728187073    8.29955267726198
C         5.42296391056974    8.28668731592156    6.80990932759018
C         5.12023958623942    7.12416150548706    7.50816453778017
H         5.76166143610069    6.78812697096908    8.31250486971644
C         3.99836174942971    6.38964220797818    7.16608522768654
H         3.76653727788473    5.48491628994695    7.70974776100942
C         3.17787914623767    6.80470969627781    6.13084141981116
H         2.31039283072037    6.21920585353990    5.86388617424232
C         3.46403801265864    7.97365023305458    5.44366119378986
H         2.81909113496407    8.30521371358505    4.64301071465712
C         4.57962192535623    8.71335839518654    5.78661740971919
H         4.80126468392682    9.65293459012786    5.28244271778389
C         6.02470847208850   10.55153564247946    8.25592169988566
C         6.23305402337629   11.90770945894893    8.03454480755447
H         6.86567363589301   12.22119884583189    7.21440399149144
C         5.61390911970627   12.84799635898434    8.83893723701267
H         5.77512576584262   13.90074069625377    8.65908902646285
C         4.78079722700405   12.43776718657013    9.86558142434294
H         4.29610650099797   13.16994627449809   10.49483235865875
C         4.55465731640135   11.08629159136381   10.07852136561950
H         3.89185337981164   10.76792511354499   10.87066224147695
C         5.16720429016349   10.14368303066689    9.27486949593190
H         4.97512967807991    9.09010308641393    9.42894084391547
N         7.77316710907772   11.35914513905273    2.01631008618776
P         6.79914062537976    7.73312283800163    3.52589314446259
P         8.33980412756623    7.37235243167226    5.86130721559976
P        10.00306987712923    9.37432213434208    4.78161798052321
P         6.85833528259241    9.35975235425386    7.14699014366506
S         6.29186700487622   12.29663588507085    4.20703937808646
Ag        7.43726761242126   10.03500281488331    4.62420008235158

