49
CSD_code = WOBNOR | q = 1 | S = 0 | Stoichiometry = C16H16BF4N10OZn(1+) | MND = 6
Zn        8.42963522116094    1.39459208025045    5.47200901689005
N         8.27085085902221    2.13522362198569    7.38458760671114
C         7.91335369221610    1.29989131315091    8.37175777946135
N         8.18318836103030    1.49522795847897    9.66149759916650
C         8.81143461706988    2.59256756464117   10.01223477956238
H         9.02202564546469    2.70350876932425   11.06676402968781
C         9.17486978504952    3.55688235146163    9.07071613468904
H         9.66528006126876    4.47221440053582    9.35214866251301
C         8.88853076130563    3.26333363172690    7.75494839135848
H         9.15263841456565    3.93866008529018    6.95281080508447
N         7.20803776042245    0.16584899340354    8.12850451896843
H         7.06693922332726   -0.41687460695523    8.95009399060575
N         6.73201454796293    0.27839508561000    5.81733734221956
C         6.63402577567749   -0.34339455477434    7.00043836465765
N         5.95846034106436   -1.46579114614108    7.21754238747282
C         5.32140182465219   -2.01895696911371    6.21121316433187
H         4.81730466466706   -2.95148631269066    6.42166014852268
C         5.29369228075776   -1.41747163127178    4.95366650690480
H         4.74738811023421   -1.84176260100795    4.12977004358913
C         6.03267753887511   -0.26336306385277    4.81049105351591
H         6.08909544230806    0.25863782873137    3.86524111132350
N        10.32111170456986    2.14147209683117    5.10800876287353
C        10.58638172200872    2.72408968624835    3.93221767964653
N        11.79265220182151    2.83371601133271    3.38915564995173
C        12.82354375220759    2.35924974135498    4.05737997717634
H        13.78361855664430    2.44083613870240    3.56789884421508
C        12.67005384403329    1.79845662242475    5.32196018098096
H        13.50574473446620    1.42943332008523    5.88962982460500
C        11.37946281197437    1.70324235873883    5.80128418671723
H        11.16979798080274    1.25117081736486    6.75865668462894
N         9.59837378358480    3.29034741417412    3.17321991390259
H         9.94559895024532    3.71633809730854    2.31748990945386
N         7.62529975280576    2.96027114869751    4.42692755565176
C         8.26951884636205    3.49164989924519    3.37959888763617
N         7.69954916575793    4.25965844045486    2.45266931057763
C         6.42499022053322    4.55063008718877    2.57638475105300
H         6.00112287468991    5.16833605896692    1.79704574451319
C         5.67394634363329    4.08848943852904    3.65768291235291
H         4.63469327571227    4.33922078903996    3.77835698307577
C         6.33244319385583    3.27676555399435    4.55679920800429
H         5.83135344649688    2.85388088533540    5.41560383206305
B         9.86587796184261   -1.47939483011062    5.55046371293502
F         9.40558109357559   -0.27942138316210    6.31035886801071
F        10.44129868113769   -2.33288186380430    6.39329634822260
F         8.70893822710951   -1.94281004451433    4.95390252388333
F        10.70383271933796   -0.95225736414371    4.59391105027263
O         8.61753576172029    0.35103347588440    3.52033743337486
H         9.52965098774186    0.26781768944705    3.21129715655622
H         8.37768247722420   -0.57222308439299    3.70142867042555

