95
CSD_code = WOBSUC | q = 0 | S = 0 | Stoichiometry = C48H46Zr | MND = 14
Zr        4.70442007856815    0.80290607187678    5.24753419343707
C         2.81785055685417   -2.08658636449072    6.03381318357985
C         3.13152569566742   -0.89942622602220    5.44551098907237
C         3.06414437012625   -0.47706265046976    4.15666038528860
C         3.59409944118727    0.25920164815282    3.24975672705174
C         4.44286993203409    1.28517854628632    2.98530153918498
C         4.43485912765407    2.25739466374866    2.03221827075575
C         3.12375628406551   -2.31140723041525    7.44485346772755
C         3.22337820103606   -1.23321357702381    8.33070252427743
C         3.55994903052274   -1.42909797002046    9.65424636188938
C         3.82141328357640   -2.70406098537986   10.14442377475221
C         3.73370015143304   -3.77688627820867    9.26526876067754
C         3.39459826896792   -3.58983712805315    7.94026332571799
C         4.14094027322325   -2.92133194049264   11.59520246944432
C         2.85818193136387   -3.15027347906436   12.39750323379509
C         2.19912916568128   -3.16980978888467    5.25526061529846
C         1.20564176463463   -3.97278036280202    5.81918875633139
C         0.58600835406290   -4.95564398686938    5.07465714170020
C         0.93451865591563   -5.17562480821047    3.74726283499971
C         1.91703901282417   -4.37225540418612    3.18197827388144
C         2.53861274388239   -3.38495878018970    3.91997694317380
C         0.22794674785767   -6.21725123723730    2.92801715478523
C        -0.98583542443725   -5.60978824735167    2.22156670312995
C         5.42719021994667    3.32985904121627    2.07353003246575
C         5.14747457649801    4.60698252611876    1.57991106536004
C         6.07775979802935    5.62218675864135    1.67994821168087
C         7.31467551661540    5.40919408138176    2.27686075905312
C         7.59545657894663    4.14096664014448    2.77390744700894
C         6.67044508527978    3.12176560787907    2.68004109449203
C         8.33979662974809    6.50447063052662    2.33866252660233
C         9.22799271216794    6.47855552319852    1.09271243721592
C         3.41621200357446    2.26587076958768    0.97233667821521
C         2.11256338445633    1.83673530776339    1.21882122749029
C         1.17529201774579    1.80125617095567    0.20578903725201
C         1.50494078823540    2.18925734701573   -1.08660572617101
C         2.80674840112203    2.60694072470627   -1.33760707792881
C         3.74787681379828    2.64722415844397   -0.32943060981070
C         0.49726670438249    2.10666361038407   -2.19708374441649
C         0.57157626177018    0.74265544402684   -2.88651842449962
C         6.04545465572632   -0.95112820152052    6.41641083442123
C         6.71496372136773    0.27518015133788    6.61871230185718
C         7.17999811460117    0.73528376198018    5.36618793098649
C         6.81367490370845   -0.22411334298899    4.38885408046430
C         6.11612779456516   -1.26197719182451    5.03810313760363
C         5.05753111587300    2.91291926413352    6.52016889543104
C         4.44431358344690    3.28621199109773    5.30451078332985
C         3.13179479418310    2.75858847874562    5.30052394141289
C         2.93968201447793    2.04917556901275    6.50274243719884
C         4.13567252273354    2.13708086359584    7.25863791009485
H         4.79269932985820   -3.79069576766298   11.70494706075885
H         3.94288904506353   -4.77495221921034    9.62485733503055
H         3.35746808264569   -4.43920776226327    7.27346972177061
H         4.66418362796725   -2.04996253639922   11.99529001491018
H         2.32864437829175   -4.02289567713669   12.02142481280237
H         3.08760247232034   -3.30903417329479   13.44882470610185
H         2.19990585413745   -2.28853179083143   12.31144042324473
H         0.90747022537233   -3.80832862809615    6.84514385006035
H        -0.18427579427621   -5.56338657732942    5.52976279039983
H         2.20209455723539   -4.52646836870730    2.15026740560834
H         3.30672267441172   -2.77507685886717    3.46121315606804
H        -0.10285999064735   -7.03480473792478    3.57222758066005
H         0.91079149588565   -6.62668266141077    2.18027079657686
H        -1.68514960293627   -5.20785377911850    2.95148455050197
H        -1.49838930213496   -6.36208867579398    1.62593722544092
H        -0.67413680873682   -4.79954819630611    1.56615981564885
H         4.18417882533166    4.80708335707422    1.13322967290517
H         5.83761994603403    6.60342966142179    1.29412400726235
H         8.55508784403712    3.95442735393478    3.23735425313227
H         6.90583425476770    2.13254774727102    3.05395015096192
H         7.84225156899376    7.47448032965729    2.40492478678279
H         8.96339506770446    6.37938853642081    3.22679994170197
H         9.97122409875102    7.27162413161229    1.13616825908123
H         8.62601458669867    6.61496198289601    0.19698822094433
H         9.74293335667455    5.52331242734121    1.01570604225032
H         1.83174772559535    1.53632684473388    2.22034089768461
H         0.16834581338852    1.47167428678670    0.42210467458221
H         3.08561902287841    2.90346805439638   -2.33954913695296
H         4.75878800768441    2.95923327733805   -0.55108151619533
H        -0.50845181727527    2.25263618652737   -1.79691189135010
H         0.68960945328041    2.89149225130832   -2.93207441863906
H        -0.15866287061800    0.67963701264404   -3.69041939374253
H         0.37188451418067   -0.05230506325894   -2.17133023691120
H         1.56354504792808    0.58433835198622   -3.30411911079980
H         5.69520505790381   -1.61388696998164    7.19711811112945
H         6.95282980923449    0.70951039300567    7.58295091958480
H         7.84258741518014    1.58034824964827    5.21507063020241
H         7.13395192126640   -0.24035439141498    3.35299324315382
H         5.79251033048973   -2.19035705524380    4.58305771177603
H         6.01176660933905    3.27967298673891    6.88067507377586
H         4.84531422797936    3.99059313542605    4.58723185783561
H         2.37165734109488    2.96230765790373    4.55596330634073
H         1.99455030379281    1.63980861308252    6.84177614206397
H         4.26630809216939    1.81698148723604    8.28655551738580
H         3.00644017214656   -0.23733962219678    7.96255562786594
H         3.62022566919092   -0.58171297413076   10.32413059387006

