87
CSD_code = WOBTEM | q = 0 | S = 0 | Stoichiometry = C43H33AgN2O6P2 | MND = 3
Ag        4.95981242883664    3.27709968407669    1.23047077368177
P         7.30089187042137    2.68752316196796    0.47028492018623
P         3.22848150845254    1.57108951370265    0.61274976972742
O         4.65038199285882    4.66432320418466    3.14349710169329
O         4.60051228091418    5.64240597164693    1.16195682092036
O         4.19397175675330   10.47576304136165    0.92494461476608
O         3.85475227257499   11.64145935236812    2.69633432186471
O         3.81231560941161    9.51819490477585    6.98142657588442
O         4.01062817643431    7.38480509755493    7.12575871322525
N         4.04930750052091   10.59449826189157    2.12069110647574
N         3.95559473488898    8.41776730249943    6.49768978421835
C         8.53725144764973    2.91763086554826    1.79095179415435
C         8.07780614611544    3.26121969027193    3.05786835210456
C         8.97681618547142    3.46754889624253    4.08962469842473
C        10.33562917961727    3.33260603435844    3.85930762007238
C        10.79718761266015    2.99375819064250    2.59616131700832
C         9.90437011808555    2.78847484493012    1.56147840868947
C         7.66535061597051    1.02254461374866   -0.16358313343462
C         7.18359142323374    0.69381902547315   -1.42950531554620
C         7.39082813723996   -0.56925662901533   -1.94595511482015
C         8.05727389023567   -1.52416322395023   -1.19341467842327
C         8.50233110139648   -1.21443989294333    0.08029073532313
C         8.30489624264752    0.05296523148143    0.59950586770834
C         7.99236021681416    3.76284219588459   -0.83023393063384
C         8.99511578078912    3.36646016892832   -1.70958462272274
C         9.49730933932456    4.26844371140088   -2.63007850968318
C         9.00712374471988    5.56357105746465   -2.67966704852887
C         8.00161374910848    5.95841559975800   -1.81219397579776
C         7.49253835625164    5.06108735576130   -0.89136225917049
C         2.04009173029617    2.27964875261892   -0.57339908582113
C         2.36288316087064    3.50463499398029   -1.14853229471271
C         1.49977160888103    4.09548370592472   -2.05398231626064
C         0.31021416844594    3.46727856069891   -2.38445474553839
C        -0.01850530682793    2.25021395771566   -1.80699710266343
C         0.84039804265312    1.65479521453785   -0.90201158477667
C         3.76743319756032    0.03260427953339   -0.19559326735186
C         3.52692050372113   -0.26171286993187   -1.53157153343277
C         3.99989071381891   -1.44546555848780   -2.07118178553322
C         4.71983446338497   -2.33195633612551   -1.28909628112091
C         4.98692327788022   -2.02815308279928    0.03721657481465
C         4.52170199148862   -0.84736515025796    0.57892116247786
C         2.11627434640248    0.94398035547978    1.91256503132608
C         1.87247995041247    1.79860772093549    2.98413016914784
C         1.00602213475477    1.41876268021033    3.99213835817592
C         0.38486625586645    0.18126351515589    3.93875098291128
C         0.63687831046232   -0.67778605504713    2.88111932597301
C         1.50028904578842   -0.30267754407182    1.86754244997723
C         4.55059747513675    5.66210783888232    2.40590462248930
C         4.35751598792144    7.00847259334013    3.07440768493586
C         4.29068308299625    8.16155070742116    2.30411997643831
C         4.11512924671023    9.39146576668284    2.92488484707330
C         4.00106904309169    9.49496061105582    4.30380288582298
C         4.07056513700016    8.33114258905958    5.05607551813898
C         4.24900401157819    7.09119253411752    4.45602991731616
H         7.01089478621329    3.37330923750623    3.22839655316221
H         8.61670851874428    3.73596117470343    5.07152729298622
H        11.03854740132941    3.49456964627399    4.66303688599203
H        11.85787235050491    2.89245451912673    2.41807843947938
H        10.26418529230685    2.52894275696739    0.57602205871291
H         6.65592473139692    1.44349823817828   -2.00553440891897
H         7.03181816502588   -0.81282922784959   -2.93487186130575
H         8.22315112330826   -2.51122577236728   -1.59857756396049
H         9.00980578307011   -1.96210886720910    0.67245792974754
H         8.65311257155440    0.29328440322404    1.59443987922930
H         9.37093581026255    2.35271669374694   -1.68717633763969
H        10.27559281243417    3.95864586416621   -3.31251286205444
H         9.40516834551198    6.26248620751501   -3.40032872238066
H         7.61091071872314    6.96399761486598   -1.85668932790340
H         6.69533468033599    5.35749417186343   -0.21885575457526
H         3.29237139079070    3.99707730677902   -0.86972090261445
H         1.75194028373156    5.04750766310205   -2.49638411469257
H        -0.36644489339279    3.92848118386243   -3.08848064092239
H        -0.94988079240119    1.76573897264359   -2.06159090924045
H         0.58144455173243    0.70949997726321   -0.44610453030137
H         2.96621978627346    0.42910706856456   -2.14541638075886
H         3.80122162429081   -1.67706817018150   -3.10762062664987
H         5.07905015998039   -3.25772668881578   -1.71314305066754
H         5.56005537695820   -2.71250320755733    0.64485257516238
H         4.72822905223459   -0.59578391520321    1.61187022289713
H         2.37867586361192    2.75682013651240    3.02409424559739
H         0.81971165275201    2.08342247503340    4.82241839766189
H        -0.29048501057211   -0.11856100690004    4.72626274039239
H         0.15876872921894   -1.64601260862779    2.84574068210591
H         1.70587853452197   -0.98172765607552    1.05116247807341
H         4.37394793877016    8.09095872405350    1.22927627425446
H         3.86279780059843   10.45552070598854    4.77892783704479
H         4.30435986028044    6.19124536625883    5.05133928489642

