75
CSD_code = WOCCUO | q = 0 | S = 0 | Stoichiometry = C26H40O4P2PtS2 | MND = 4
C         8.90905808028753    2.42843551374926    9.52911996657059
C         8.43438762746963    1.72972436506756   10.64505077772872
H         7.38360453734778    1.78696799323000   10.88635909809559
C         9.29274929248816    0.98616934235656   11.41934131629666
H         8.92315311038261    0.44962708377888   12.27909489768556
C        10.65246100034199    0.91812791223920   11.10227679014243
C        11.12779985677543    1.61444395468100    9.98737655081913
H        12.17960297879353    1.55545601642494    9.75050924619260
C        10.27092123128487    2.35698198413158    9.21294513288313
H        10.64129546052931    2.90187167975171    8.34307982150255
C        11.60154564703396    0.13904195371394   11.90235562609165
C         9.66266885089491    0.94847582923788    5.98968299365568
H         9.46536910068982    0.76255599603968    7.05013262463316
H         9.27218415070963    0.09848815975586    5.42412212630779
C        11.15959032512444    1.13183462447262    5.76023325890928
H        11.72557749812562    0.35965959668839    6.27635523862105
H        11.48253057892319    2.10475450977450    6.13446741303162
H        11.40128360417899    1.08514067630109    4.70091477529429
C         6.99141165206977    1.91167484206701    5.64566169872449
H         6.83640658862327    1.10360090062445    4.92676971374881
H         6.83884488436565    1.50912197581915    6.65037578280644
C         6.02663266646472    3.06537947235714    5.40226952961536
H         4.99624762203045    2.72253043561160    5.46704840372333
H         6.18127712718003    3.50954119526433    4.42065759177208
H         6.17640558892673    3.83259866323347    6.16175842636680
C         9.04634216177596    2.70143440836813    3.74431461790343
H         8.49704442003765    3.59612136898320    3.43568394524340
H        10.11023296348463    2.93500664307835    3.64582353221018
C         8.68087300168690    1.52841193910935    2.84506141367024
H         8.97932920127326    1.75298499427286    1.82256497978643
H         7.60899926445079    1.34524498878749    2.84451021134193
H         9.19090054387511    0.61766147392111    3.15067583307534
O        12.78618559250356    0.04184508758240   11.67480565752510
O        11.03757072006237   -0.48928431302194   12.95518418910997
P         8.73857261290219    2.47604016558313    5.54904166769164
S         7.79819975184714    3.35578680009335    8.58250672426537
Pt        9.33003548123671    4.22961414470478    6.91599402577570
H        11.72164385046488   -0.98122513830550   13.43386638168654
C         9.75472633409367    6.04826880634348    4.31377370126164
C        10.23518429453786    6.76942724860079    3.21474207108701
H        11.28748663574900    6.71839737372048    2.97869284374465
C         9.38064629626755    7.52783485285447    2.45064359659436
H         9.75486574434201    8.08242009120573    1.60442957430180
C         8.01906203607416    7.58833268775628    2.76104556355815
C         7.53774148089544    6.86851126156931    3.85830937896707
H         6.48447206080118    6.92158347260383    4.08996457984730
C         8.39081468847070    6.11137047571965    4.62267441998674
H         8.01597099324160    5.54863313370541    5.47916478751919
C         7.07407328464414    8.38375570126241    1.97218489234512
C         9.00235539213077    7.51171755296132    7.83782965112833
H         9.20332526863753    7.69700916689222    6.77797851599709
H         9.39241941803749    8.36117929903922    8.40447240168296
C         7.50440135504779    7.33056146471684    8.06234044328354
H         6.94119744084119    8.10329154988650    7.54402031961502
H         7.18154518133623    6.35797881043567    7.68714186989129
H         7.25916868693419    7.37777707249573    9.12082117449666
C        11.67101084923378    6.54188643226843    8.18864977369762
H        11.82763953234242    7.34798688603676    8.90940340361055
H        11.82608795725126    6.94602064131649    7.18497078510733
C        12.63173984357938    5.38459725936072    8.43099306536244
H        13.66324029728393    5.72462396358200    8.36969626514401
H        12.47345702086853    4.93793473859367    9.41087399615710
H        12.48151214471808    4.62006786840889    7.66890531429672
C         9.61015541849218    5.76114969848730   10.08660108419999
H        10.16026702911867    4.86816619627775   10.39863650585632
H         8.54642722236378    5.52619576220984   10.18347939652934
C         9.97149585758316    6.93655765573695   10.98440278386523
H         9.67296336238158    6.71243509124712   12.00696705300519
H        11.04278170146791    7.12299356238091   10.98559075776913
H         9.45892996489594    7.84530834023776   10.67724596230799
O         5.88776189202694    8.47399297641962    2.19396180075032
O         7.64367766984326    9.03482569448896    0.93642120023986
P         9.92208179157602    5.98263450901517    8.28197947984068
S        10.86081658355009    5.10330484582711    5.24868500518266
H         6.96185864269740    9.53582061681101    0.46391460126294

