47
CSD_code = WOCCAS | q = 0 | S = 0 | Stoichiometry = C12H16F2N4O12Zn | MND = 6
Zn        4.28583603737767   -0.00030653539523    0.00005050947189
O         2.82550476698576    1.49884268972518    0.22564661648974
H         3.24031300795973    2.36691402211401    0.21981553030994
H         2.23485614782810    1.48126836644419   -0.55663742831393
O         3.60649989911201   -0.93495210817046    1.74459826394250
H         3.29294075104386   -0.27398140492757    2.36845669755562
H         2.77673969801928   -1.38340499117020    1.40266329870831
O         5.55243594760239    1.02418076573021    1.05965450154962
O         7.02855027933031    1.79162623106394   -0.41850124290055
O         7.11873465262574   -1.27062298349991    2.08023974225578
O         4.87100565529150   -0.67401357303865    5.96229538731273
N         7.21716542939049    0.80338952607788    3.01845363544227
N         6.04549559068239   -0.92265289124682    4.03697980034642
H         5.72346226554912   -1.88431226384776    3.99197090954967
F         5.72918420392796    2.03840873061693    6.03917823433874
C         6.69611050177058    1.39952712156414    0.69561200076306
C         7.78874432980694    1.33677459520606    1.80585451549285
H         8.57708402831413    0.67238830368962    1.44447139930729
H         8.20320614961213    2.32826773738904    1.97969113417196
C         6.80393142529129   -0.50969900592994    2.97712112321522
C         5.58176079070595   -0.18055655112889    5.12446020977911
C         6.06914936850552    1.19054119699727    5.05455419222583
C         6.82145885141030    1.62735368336160    4.02522643427050
H         7.14791678424591    2.65590573975342    3.97360291893514
O         5.74559831292564   -1.49933566411666   -0.22510915989267
H         5.33106183457908   -2.36743004959150   -0.21920274233812
H         6.33647281548999   -1.48165187577856    0.55707145325045
O         4.96408841864970    0.93554312998985   -1.74413263490341
H         5.27689195934594    0.27535716576206   -2.36930992672690
H         5.79416604467301    1.38340231413527   -1.40211228842259
O         3.01871178696575   -1.02448055462025   -1.05936363174238
C         1.87475602051527   -1.39866335662219   -0.69523780272527
O         1.54198534635413   -1.79059074469780    0.41889328094410
C         0.78249375246045   -1.33681850140770   -1.80583677121981
N         1.35421492721678   -0.80358070536590   -3.01844822405811
C         1.76740813733434    0.50953554704089   -2.97717766151230
O         1.45292331858283    1.27050336096280   -2.08019368432371
N         2.52573893246496    0.92245668566375   -4.03717273050400
H         2.84782692612130    1.88413051921107   -3.99228517862314
C         2.98902850502853    0.18039199248152   -5.12487699376150
O         3.69968257067664    0.67384013873191   -5.96286835241279
C         2.50155926888619   -1.19068954413018   -5.05493376187725
F         2.84110802614648   -2.03845207282685   -6.03976830225569
C         1.74951009223455   -1.62748562026022   -4.02539947572751
H         1.42300122344523   -2.65600885375915   -3.97369543551451
H        -0.00597083918919   -0.67245315303349   -1.44477918814036
H         0.36815605682894   -2.32840655911626   -1.97951917164504

