36
CSD_code = WOCDUN | q = 0 | S = 0 | Stoichiometry = C18H11CrNO5 | MND = 6
Cr        2.81660005093142    8.00517151924523    1.81119040328416
C         4.02915356468395    8.88641813918485    0.72921978278772
O         4.77543297161892    9.43861064529115    0.04736689181549
C         2.87565956554078    9.49109175666900    2.94803272230679
O         3.02334246659595   10.45744651406596    3.54957521809322
C         2.87290783532114    6.57058170459777    0.61166936745890
O         3.01658391645283    5.75354084721136   -0.18164771299133
C         4.28993729092124    7.26063553986787    2.69354228081966
O         5.29263579435478    6.88542335411493    3.10701783806666
C         1.50050622838700    8.84374814539954    0.78115289132410
O         0.85373359620883    9.43712073649260    0.03908892829150
N         1.43357439073537    6.97272288281005    3.02186879981813
C         0.16890326335327    6.84241977396917    2.83009893113873
H        -0.23672741315721    7.37562631898252    1.97282352725978
C         2.07399976474811    6.21618196445540    4.02674149439937
C         2.19378702802106    4.83516046979728    3.88627272466950
H         1.75768997100943    4.35201543251881    3.02299596044468
C         2.88918705221224    4.10263503935206    4.83040259513872
H         2.98944206177758    3.03484764578055    4.70750248687978
C         3.45267020435652    4.73202459748734    5.92736236293515
H         3.99415490387531    4.15708545335687    6.66256679335472
C         3.32392240925999    6.10395569989819    6.07634398758413
H         3.76085320254049    6.59875049722742    6.93057820868855
C         2.64257544773679    6.84803153020126    5.13201857914326
H         2.54003924285168    7.91928222305874    5.24099387507924
C        -0.80783512578740    6.05769348415741    3.57095692679199
C        -1.94419533270219    5.62519597920590    2.87552637558450
H        -2.04975591472323    5.87739424810112    1.83017615779771
C        -2.91102788735302    4.86544732924836    3.50131941838877
H        -3.77305298175588    4.52811318759570    2.94558740113996
C        -2.78033682386139    4.54364600324761    4.84353521842726
H        -3.53817405744663    3.95325381066779    5.33577741123175
C        -1.67938748752701    4.99506568135720    5.55324507503118
H        -1.58311999965430    4.76487426030629    6.60372103936517
C        -0.69881814321440    5.74155391464657    4.92876201929951
H         0.13753894363925    6.10273367046157    5.50511401916006

