93
CSD_code = WOCFAY | q = 0 | S = 0 | Stoichiometry = C36H51FN2O2Zn | MND = 4
Zn        1.67175964443875    2.47077620134852    1.62133377171254
F         6.65933164962873    1.32632254573112    0.07320963951518
O         0.17442287599958    1.51352809645815    1.67200014932032
O         2.51876801067865    3.31512812219601    2.94948743143012
N         1.16495063636163    3.99678585233614    0.36316987578543
N         3.15740855679971    1.26092070040869    0.76445719453080
C        -1.14991141585226    3.39406468035295    1.08775112864391
C        -2.26366205011830    4.18719134786677    1.29873429053288
H        -2.41064785348064    5.04175071452485    0.65238443804157
C        -3.17758622444060    3.90420752077018    2.30236561543353
C        -2.92804746546233    2.78825037081987    3.09103744290161
H        -3.62221724922411    2.55243430812905    3.87625297805550
C        -1.82461235731770    1.96561643722737    2.92395165886093
C        -0.90144534762019    2.27176474248290    1.90014091804972
C        -1.57856639648274    0.77263269087535    3.84109508226659
C        -1.46958780135542   -0.50252914716653    2.99503501970614
H        -2.41014509261081   -0.69119520103731    2.48078885516216
H        -1.24006833488948   -1.35815570126841    3.62769701822516
H        -0.68554314784161   -0.38906359899344    2.25405998770022
C        -0.27538355531233    1.00759263724519    4.61765234365081
H         0.56352083738485    1.14555628690083    3.93832440854661
H        -0.06103361669365    0.15745820575334    5.26286038203681
H        -0.36389889444165    1.89946498213573    5.23490425417123
C        -2.69790215219364    0.55518395460187    4.86548406603110
H        -2.78900452160061    1.40299445953756    5.54053213821570
H        -2.46470517773019   -0.32354366836753    5.46435887284307
H        -3.65347371220211    0.38229052666894    4.37519313049243
C        -4.38613630612349    4.80852464952594    2.49697123411851
C        -5.28699536477187    4.35639724104895    3.64935691086677
H        -5.67956822394241    3.35831396091489    3.46989517884142
H        -6.13073578918358    5.03836324959625    3.73956508568682
H        -4.74691529672350    4.36353121970043    4.59310580496093
C        -5.22519715277056    4.81113563780185    1.21122160905039
H        -4.65206030588730    5.18279694884514    0.36637365886683
H        -6.10217676203276    5.44408825628219    1.33346207429649
H        -5.55635124262897    3.80121893093889    0.97892669602627
C        -3.90259769037675    6.23337647653803    2.80289494473526
H        -3.28189770964315    6.23396312595122    3.69641757035731
H        -4.75193232712568    6.89304954611865    2.97052075038281
H        -3.31603944217099    6.63625349527222    1.98185050605816
C        -0.22095941714856    3.71377270704701   -0.05484280050035
H        -0.18093449958753    2.85163705978832   -0.73015953627491
H        -0.61428215158091    4.57478195900070   -0.61627780577775
C         1.97718488760943    4.26331875577954   -0.81882960984390
H         2.98419421782910    4.54269579684922   -0.51190338541080
H         1.55289648159652    5.08710991683135   -1.40722934920238
H         2.02713011911508    3.37388234521363   -1.44652267291531
C         1.20538028075488    5.16924918791575    1.25743835350372
H         0.50277118668796    4.97820443823374    2.07659467016337
H         0.86396745706985    6.06050623089061    0.71007559839697
C         2.57996558160703    5.40707494440375    1.82440030773962
C         3.14283787836268    4.45910194418267    2.69880517049492
C         4.37973779002940    4.77053396537081    3.31619579830943
C         5.01520855617930    5.94576086075361    2.95927708717348
H         5.96604573190734    6.17304407184654    3.40959172396875
C         4.49525501624360    6.86116231357871    2.04691309680963
C         3.25436454340104    6.57608149872296    1.50617689693429
H         2.77555462118429    7.26371626481642    0.82572892745738
C         4.96697501378309    3.83622192970610    4.36891612198223
C         5.27412897263233    2.46820033354103    3.74490809779706
H         4.36204983806920    2.01978663758227    3.36192759224612
H         5.69683988978395    1.80150589305384    4.49440235586828
H         5.99313646599833    2.57409799290246    2.93351804261291
C         6.26332103245421    4.36817949766468    4.98936007972508
H         7.05304952729926    4.45854888831106    4.24620182001780
H         6.60348548505725    3.67163642977474    5.75363088584144
H         6.10419023110285    5.33349600932645    5.46430106796623
C         3.93894916595780    3.66723268280853    5.49539600899051
H         3.72934568395247    4.62994859919584    5.95721746380931
H         4.32005395446780    2.98989910864351    6.25732512599606
H         3.01387233468509    3.26336885933552    5.09677384537257
C         5.28686912411939    8.11622184130642    1.71088074709432
C         6.64825323162869    7.71479273985402    1.12533251147412
H         7.22264205751728    7.12229777005896    1.83173344931170
H         7.22732504652094    8.60145157224940    0.87434504451063
H         6.50981533412568    7.12569884014589    0.22072521416107
C         5.49664995609998    8.93951776274418    2.98924057752907
H         4.53573545250603    9.20475084950190    3.42476251661467
H         6.04032312148677    9.85520472115860    2.76424973547993
H         6.06198566955888    8.38084728869927    3.72960775709853
C         4.57395831786549    9.00365434993416    0.68659242117040
H         4.41314055074485    8.47064736345233   -0.24801961743931
H         5.18608214901364    9.87820497485463    0.47406064787810
H         3.61662276667486    9.34912633894456    1.06950361166210
C         4.38972023270709    1.70682156952831    0.56043990570302
H         4.55749420125383    2.77138542913584    0.63414634519929
C         5.43150712615696    0.83650309227470    0.28217463242970
C         5.20950446007758   -0.52961086977673    0.21453325132508
H         6.02290640838057   -1.20569562432786    0.00205465920059
C         3.91500021197028   -0.97247207686563    0.43241760570524
H         3.68019768319531   -2.02399730217105    0.39550514439501
C         2.92125973846384   -0.04519406342937    0.70256191123792
H         1.89767505231617   -0.33975449623778    0.88001683295396

