68
CSD_code = WOCKEE | q = 0 | S = 0 | Stoichiometry = C23H33CoN6O5 | MND = 6
Co        0.97897679998633    0.10781513947016   -1.39185035527986
O        -1.54780020849898   -1.01413801626917   -1.84252053901396
O         2.80491263443056   -0.47111637848943    0.77818324086285
H         3.28594718241576    0.16580720600277    0.10815220405540
O         3.62189421542970    0.99055133246085   -1.10687779152850
O        -0.87555197434026    0.77354818404737   -3.49381798621246
H        -1.29901852843680    0.02596332738546   -2.90545890743729
O        -1.60751820706361    2.63798057449733    1.63902381717978
N        -0.54061487610414   -0.93097088838121   -1.03548428924541
N         1.58660845914328   -0.67038518324050    0.21560250118890
N         2.51961965367384    1.11636704351214   -1.76620806079358
N         0.35097147794516    0.95761468784085   -2.93811466516870
N        -2.74620747293985    3.76532612593042    0.06930769085220
H        -3.26312327947057    4.27018257274002    0.77030214212048
H        -3.00543025197518    3.87755482973769   -0.89381536780889
N         1.85931227407015   -1.59480136575107   -2.41203388975053
H         2.87133516386678   -1.48368042788673   -2.35779243180007
H         1.63044237733229   -2.39412280257573   -1.82142320143247
C        -0.49727795885473   -1.60482586233889    0.07757725169766
C         0.73286909117368   -1.43972142498688    0.80672349781011
C         2.41588988495510    1.92254562653662   -2.78349428360869
C         1.14167485894526    1.84663082201317   -3.44260253914770
C        -1.61227296365230   -2.48086903692701    0.55252508480371
H        -1.99151186124688   -2.12490616456559    1.50901139513836
H        -1.28039105989369   -3.51109152075015    0.67627383920882
H        -2.41369466312293   -2.44961187273287   -0.18255846205811
C         0.98154099227344   -2.11144571009404    2.11532244814577
H         0.82746094275718   -3.18598689295375    2.03418440521282
H         0.28819723884565   -1.72486039626830    2.86061163385106
H         1.99913307161109   -1.91137028638500    2.44005562215956
C         3.52212540542458    2.81830823282556   -3.24066088779418
H         3.19442998714425    3.85645927102630   -3.25249475178333
H         3.84991792490838    2.54677688440038   -4.24339242757716
H         4.35742854126381    2.71274467169314   -2.55172756991086
C         0.78168510058844    2.71948505274003   -4.59776472581642
H         1.59095868659139    2.74948536947467   -5.32221567142910
H         0.59989992005124    3.73494248905379   -4.24592533860543
H        -0.11942441136856    2.34295975775417   -5.07478338094657
C         0.19325862018225    1.60407723768868   -0.31917355776640
H         0.16417915167688    1.28409838921432    0.72524946463822
H         0.86946402491314    2.46077188722928   -0.37986057892011
C        -1.21021562687853    2.06530664857034   -0.68347003607927
H        -1.87452673395030    1.21555542247666   -0.86141802303420
H        -1.21391162250402    2.68780006564152   -1.57882043511031
C        -1.84605945320099    2.83230573899537    0.46969423602489
C         1.47688548057809   -1.94201397717078   -3.79042348924686
H         0.38632915522350   -1.89864784356686   -3.82229800535937
C         1.91766430920424   -3.36917960042041   -4.14227818235692
H         1.61583924992220   -3.61069346100606   -5.15823642020576
H         1.45848230623963   -4.09013018389223   -3.46739133385884
H         3.00013830179775   -3.46454594177204   -4.07672381513159
C         2.07690590825047   -0.97781896287818   -4.78999953895174
C         3.41351221250020   -0.67433312438173   -4.70058077888895
H         4.02491640531265   -1.09234577654821   -3.91323990081374
C         4.04317642426317    0.17290950364943   -5.62027359289754
H         5.09656586033982    0.38328177642095   -5.50792398916660
C         3.32701922963530    0.71524322643292   -6.64698085752177
H         3.79876442183170    1.36935043687326   -7.36672073163816
C         1.95487425206880    0.42573914340231   -6.79082286485172
C         1.21436756851336    0.98389661211109   -7.85422350071896
H         1.72524836876446    1.63591816552314   -8.54882448016060
C        -0.11443260541049    0.71046070407269   -8.00528205455665
H        -0.67591531452458    1.14354263756141   -8.81985231638272
C        -0.75425738055917   -0.14202962178584   -7.09528645211861
H        -1.80533212474808   -0.35641950694055   -7.21805859139472
C        -0.06366339714613   -0.70143885673567   -6.05654390279137
H        -0.59581154077676   -1.35086770945611   -5.38151232822094
C         1.30964038055680   -0.43533799982223   -5.85826319264130

