37
CSD_code = WOCLEF | q = 0 | S = 0 | Stoichiometry = C14H18Cl2N2Pd | MND = 4
Pd       -1.78637321776772   -0.00059775165949    4.98781811679202
Cl       -2.68109381355286   -0.53481200097925    7.02221262095081
N        -3.52961086830592    0.92255167182867    4.47754460128767
H        -4.31355037837204    0.50331707774403    4.98892677849984
H        -3.71111956323197    0.85966568285735    3.47068247634241
C        -3.39185691654446    2.34203751098771    4.86766166640386
H        -2.55830250868267    2.76968021606357    4.29484240132926
H        -3.15322227289909    2.37254444719765    5.94071868528047
C        -4.66833048586030    3.09671536222249    4.59310337906932
C        -5.70622555346884    3.06361436199209    5.51680771423967
H        -5.57328114092872    2.53466072781665    6.45004109147765
C        -6.89985424293495    3.71014420785700    5.25029038886717
H        -7.69974563284576    3.68310492379296    5.97506812426083
C        -7.06708460347910    4.39206447574626    4.05647371826621
H        -7.99785946829267    4.89849824452557    3.84927597131550
C        -6.03867065370367    4.42534419142835    3.12998613076473
H        -6.16625988882879    4.95678493536459    2.19876854488387
C        -4.84474175924361    3.77760624799626    3.39562453687715
H        -4.04181321175885    3.80475074244394    2.67284709537928
Cl       -0.89082680951521    0.53448997315867    2.95370227730197
N        -0.04256183336885   -0.92278622668181    5.49803213492660
H         0.74139200177598   -0.50362429434399    4.98660859397181
H         0.13887132550655   -0.85964947062056    6.50489312932994
C        -0.18018643665498   -2.34238567589315    5.10827076091615
H        -1.01356570713797   -2.77000193756186    5.68136228074953
H        -0.41904190099161   -2.37319710798533    4.03527181808869
C         1.09644691742164   -3.09681305202445    5.38277562378153
C         2.13388323625359   -3.06441874696762    4.45853564244061
H         2.00047965836179   -2.53613410306886    3.52498031117542
C         3.32767635678802   -3.71066408714926    4.72500193250248
H         4.12727874594611   -3.68406152437429    3.99987524331844
C         3.49554592980361   -4.39154279470059    5.91931653989139
H         4.42646129382096   -4.89773385198954    6.12648148356586
C         2.46759252236055   -4.42411664336453    6.84633401989915
H         2.59562630996639   -4.95489478854506    7.77788106235448
C         1.27347710532109   -3.77671141770072    6.58072462117779
H         0.47084746503658   -3.80342952528190    7.30385848258264

