87
CSD_code = WOCMIL | q = 0 | S = 0 | Stoichiometry = C43H38BN2P2Rh | MND = 5
Rh        0.45531915600514    2.72393153743419    2.98225528557302
P         2.44266552259658    1.88672150318136    2.40851669207192
P         0.03222553529991    1.21281845622741    4.58609466120064
N        -1.31836302877196    3.65906604692129    3.36074577172073
N        -0.52249254725952    5.69033004578218    2.38062697360170
B         0.83980566249647    5.05114864786997    2.03073799587716
H         0.56468359690808    3.80877203083370    1.74745369634867
H         1.56999854781969    5.16348777996226    2.97994342059130
H         1.29085349941388    5.53193760151654    1.04131803836399
C        -2.48640773988273    3.33429454078981    3.99049099845274
H        -2.65584849817127    2.33473079644152    4.35188472621746
C        -3.35312948718625    4.39284136924976    4.07421024008447
H        -4.33015678555676    4.39048092391329    4.51521022890467
C        -2.70130096338712    5.48334591438929    3.45614436634647
C        -2.98806573073722    6.80840736667558    3.16958836744983
H        -3.92849393759849    7.25402429632460    3.45872334461513
C        -2.02757399133405    7.54108863662061    2.48793257171359
H        -2.20439530438433    8.57510680315045    2.23683258847676
C        -0.82693327676769    6.95720347974230    2.11252320537148
H        -0.07402886122447    7.51727928237379    1.57931497930232
C        -1.43138817803034    4.95640915851517    3.03484988083890
C         3.45783096015080    2.89969902345719    1.27047391796095
C         3.00031256484631    2.99336604006506   -0.04136350570053
H         2.10859974325660    2.44882305642219   -0.32668630267674
C         3.66942207627993    3.77226850681743   -0.96347155438595
H         3.30926652925623    3.83763429962508   -1.98007220594047
C         4.80057034171690    4.47684073550572   -0.58113726655634
H         5.32395129867736    5.09111966937585   -1.29933481089687
C         5.25391408240828    4.39662374188342    0.72361387735153
H         6.13271605705840    4.94884877328461    1.02487382289533
C         4.58645057367769    3.61262942509311    1.64959786145861
H         4.94810231142891    3.55636234662841    2.66645109389636
C         2.53633448047931    0.30663183338953    1.49621563149468
C         1.36616229478948   -0.42527730223172    1.34034178626231
H         0.44877945428284   -0.03257483402420    1.76574958292093
C         1.37199277341261   -1.62145012549941    0.64550800844678
H         0.45763763499065   -2.18651017412903    0.53259963611940
C         2.55234938901443   -2.08853349069668    0.09172859903189
H         2.56328840488244   -3.02263469938443   -0.45089418565301
C         3.71824356174487   -1.34898257811753    0.21832029935320
H         4.63401342865987   -1.70601441813787   -0.23088512843387
C         3.71267769923068   -0.15214093957106    0.91101750616081
H         4.61610717376363    0.43792506292916    0.98759325769126
C         3.61186208245512    1.67531133536366    3.79806876842146
C         3.57710975160626    2.70937721778912    4.73129268758359
H         2.87370153160163    3.52103075602091    4.57360957156237
C         4.41998235001423    2.70229056584606    5.82462657723848
H         4.39093265775601    3.51203029642007    6.53963377827405
C         5.30290784075237    1.64873950007498    6.00253949148144
H         5.96608997450691    1.63616048299781    6.85519520298134
C         5.32694889413699    0.60741278408581    5.09141367434733
H         6.00617586241421   -0.22023131077810    5.23721499488089
C         4.48551563731754    0.61545496890033    3.99164010869685
H         4.50544296868985   -0.20983032921517    3.29547664503045
C        -0.62357379782811    2.02761920513468    6.09102013759077
C        -0.13951793171702    3.31242140758445    6.32294604246662
H         0.56366580615864    3.73945937809865    5.61252606916364
C        -0.56429767506036    4.03763179897889    7.41883424714748
H        -0.18555571388131    5.03505585749011    7.58994668866696
C        -1.48854445493401    3.48607203188160    8.29183457335271
H        -1.83090974011657    4.05161417783914    9.14616452596535
C        -1.98161864428025    2.21299327056718    8.06170436137621
H        -2.70975138687613    1.78661703146475    8.73692054214784
C        -1.55205084449353    1.48223327496224    6.96707865585326
H        -1.95588114804608    0.49592029529933    6.79050453291450
C        -1.22850434131641   -0.04953580965315    4.17859736087314
C        -1.95237772608367    0.13634427991006    3.00470350950180
H        -1.73716228118170    1.00755601706739    2.39044544220342
C        -2.92416519303549   -0.77142858669303    2.62580556117924
H        -3.48256123283786   -0.61812462744640    1.71372260110215
C        -3.17766809250433   -1.87928383972125    3.41788345533663
H        -3.93720440141173   -2.59042226443127    3.12753754475923
C        -2.44868180619282   -2.08141396907036    4.57897382625389
H        -2.63868646047777   -2.95201518485847    5.19043386191106
C        -1.47409609739413   -1.17578547738180    4.95831232047902
H        -0.89031914631622   -1.35290429014901    5.85138039702250
C         1.28987635069822    0.12278287007283    5.35286362681574
C         1.91026954158030    0.44960077854398    6.55313221002181
H         1.63404352731441    1.35691593884160    7.07151115250070
C         2.87143900868938   -0.38601609166466    7.09224480677816
H         3.34003208402136   -0.12739490098916    8.03076817987995
C         3.23146228449125   -1.55053957502046    6.43629411664152
H         3.97794131946506   -2.20428663147078    6.86298999315747
C         2.63328214831341   -1.87222583025410    5.22909113086411
H         2.91478813053027   -2.77575143780840    4.70728461542956
C         1.67230955067228   -1.03974618361501    4.68900981671130
H         1.20385278864887   -1.29678935150656    3.74938463917254

