85
CSD_code = WOCMOR | q = 0 | S = 0 | Stoichiometry = C42H36Br2N4Ni | MND = 4
Ni        2.70342149563974    9.06633970328565    8.19539495018835
Br        4.36958445941226   10.05188922029075    6.94456675991922
N         3.67161406171581   10.68472445192427   10.39812571824406
N         1.91440301451916   11.55698736208791    9.46524540457078
C         2.76433668165498   10.51299570003643    9.41730871464919
C         3.40803824987648   11.84633441550157   11.08745430163605
C         4.03111705644314   12.45741039343852   12.16373773726531
H         4.89605086021699   12.02149533199756   12.63683620315365
C         3.48695802187681   13.64680967151533   12.60880016428780
H         3.94252158192025   14.15404098765153   13.44543792971328
C         2.36378135758414   14.21032309713112   12.00514084294327
H         1.97554307242550   15.14222581081258   12.38659300822258
C         1.73581014656697   13.60667470469350   10.93267322999023
H         0.87138813301315   14.04838455418147   10.46406489074502
C         2.27427493811546   12.41235984909132   10.48158190843926
C         4.76093367998434    9.78098569205974   10.68320375344113
H         5.71262400582465   10.29855982168553   10.52006701058196
H         4.68887706308516    8.95513995922632    9.95784887646471
C         4.68088216234894    9.23635506083577   12.08517681636174
C         5.76341793665460    9.33808392956059   12.94764533634997
H         6.67959069071856    9.80155619165462   12.60773468931196
C         5.67627710560126    8.84497925394670   14.23763699404020
H         6.52375616160796    8.92834179038388   14.90204630352757
C         4.50512183084049    8.25053898889705   14.67537422028358
H         4.43684295155345    7.86998583302028   15.68366472697130
C         3.42407656911326    8.14250271396332   13.81705795432972
H         2.50994513266673    7.67443845165497   14.14956180878126
C         3.51101165282579    8.63121966929571   12.52657985814729
H         2.66619597385050    8.53572979585133   11.86110746073916
C         0.78269130044794   11.74429397047784    8.58853955160474
H        -0.13842631955333   11.73098353663476    9.18145942588979
H         0.76307735553705   10.88271429055199    7.90312459255471
C         0.89172353762587   13.02193941317655    7.79834537775255
C        -0.13716597160499   13.95323197447831    7.81221642383012
H        -1.03170166264878   13.75722866089318    8.38773509705122
C        -0.02485438042308   15.12780488578871    7.08929414563619
H        -0.83066293005928   15.84695771651287    7.10572204580744
C         1.11820122002378   15.38095225923928    6.35051423705371
H         1.20602097756053   16.29927122604476    5.78908678466679
C         2.14593361124851   14.45329471686922    6.33075701189048
H         3.03757953328811   14.64123484161762    5.75209307926872
C         2.03363422095148   13.27771637114794    7.04996849503136
H         2.83653482803090   12.55641951181323    7.02310316595075
Br        1.03768780115807    8.08073455062400    9.44669729607872
N         1.73522266527520    7.44843165309860    5.99238103163994
N         3.49220734532541    6.57576479116217    6.92532517844847
C         2.64243570409034    7.61987160070786    6.97330618925118
C         1.99868902399827    6.28687345105374    5.30292826850791
C         1.37559392675470    5.67604207436603    4.22651912134189
H         0.51076330029308    6.11215906419792    3.75341791448209
C         1.91959490154970    4.48661318670857    3.78134515737401
H         1.46400737053448    3.97955402897268    2.94461607675768
C         3.04264487579308    3.92285477374148    4.38501047986493
H         3.43077024534594    2.99094344047394    4.00346353821274
C         3.67063245267691    4.52626300862464    5.45760318878168
H         4.53495795793162    4.08436025682785    5.92620447249577
C         3.13231241742144    5.72059157976769    5.90882802093678
C         0.64603053749038    8.35233962207123    5.70735923151864
H        -0.30572701652006    7.83478873568856    5.87017576611912
H         0.71801699694867    9.17797502733639    6.43296015631645
C         0.72634683790097    8.89738630377556    4.30555961703347
C        -0.35607434312225    8.79601202911562    3.44289857664568
H        -1.27233814591857    8.33253888764608    3.78253786965295
C        -0.26870900201438    9.28951720208196    2.15307380308691
H        -1.11611336273192    9.20652627814705    1.48855988454172
C         0.90255049060481    9.88403691081587    1.71570462315690
H         0.97099163361034   10.26493576717116    0.70755751826510
C         1.98348026888020    9.99173247059350    2.57422206261737
H         2.89770434786838   10.45978994890720    2.24198457785738
C         1.89632520842431    9.50258270780417    3.86451961787761
H         2.74106444164163    9.59774309877860    4.53012009723119
C         4.62376905425422    6.38821087273118    7.80217804581067
H         5.54501659474242    6.40196126202039    7.20946728939980
H         4.64308377353622    7.24946104074364    8.48802364042061
C         4.51476339619596    5.11017233970242    8.59172958789595
C         5.54373319476601    4.17897285308457    8.57750614962799
H         6.43831223142039    4.37533838576012    8.00217720989380
C         5.43144115805823    3.00402915108310    9.29982837804210
H         6.23730859271436    2.28494920254412    9.28312505938221
C         4.28832689688097    2.75042013249936   10.03835974611360
H         4.20052139283178    1.83181420716140   10.59932086901996
C         3.26051695592809    3.67798435465883   10.05846977697603
H         2.36882809452763    3.48968215424327   10.63695125776889
C         3.37279210373801    4.85393085948068    9.33985530690855
H         2.56983631110408    5.57515495310447    9.36700133935449

