105
CSD_code = WOCNOS | q = 0 | S = 0 | Stoichiometry = C54H44Br2N4Ni | MND = 4
Ni        4.64806625237842    8.90809178986516    7.09355569921476
Br        6.63702442354717    9.64685203027449    7.99930878599078
N         3.86882603074269   11.66041041859574    7.16632684116019
N         3.07197593552667   10.59723299239601    8.88886639671994
C         3.78713904266538   10.45345094598720    7.75382109830320
C         3.22193397267525   12.60109847248551    7.93092924387889
C         3.04346796607299   13.96390162636732    7.75731349256717
H         3.42132231754985   14.47182712795508    6.88448647395241
C         2.36035951800364   14.63787424929579    8.75011768258626
H         2.20013306749507   15.70091974650657    8.65588370232474
C         1.88069450386998   13.97435815260365    9.87768348110299
H         1.36316165285575   14.53898599144850   10.63810436676824
C         2.04945321836101   12.61434458779644   10.05405198702095
H         1.67736464286403   12.12176441097869   10.93643846127579
C         2.71952297500012   11.92117672043925    9.05573873595016
C         4.54579396366081   11.91322195752418    5.91807703338999
H         4.96851227951750   10.94857479902119    5.58845191200320
H         5.37135183177569   12.61325908246903    6.08816739339647
C         3.61208827428768   12.43187118745877    4.85716361641283
C         3.95964464145815   13.53463457060351    4.08984516449304
H         4.90391394741221   14.03297238849062    4.26225160747886
C         3.10686753620697   13.99456330434738    3.10182901753357
H         3.38720816952972   14.85186185203663    2.50721682718882
C         1.89778421369440   13.35850038392109    2.87787382105065
H         1.23230147585520   13.71939176134294    2.10755080234216
C         1.54718077678731   12.25738533466849    3.64064041826494
H         0.60933354989401   11.75208407384675    3.46683145785674
C         2.40097411308664   11.79334758230885    4.62380095445334
H         2.12767138702505   10.92317107589244    5.20092474776193
C         2.77204228530042    9.46787314328689    9.75523173757419
H         2.66555796984480    8.60036371187411    9.08018169695660
C         1.43258055813952    9.65108720473791   10.43449856067728
C         1.30187650953560    9.69642682566139   11.81522102567292
H         2.17537551227699    9.59733279039908   12.44327135342904
C         0.05446357089509    9.87655127972834   12.38865878985792
H        -0.03856353880980    9.91222018835141   13.46413419448264
C        -1.06694233200983   10.01565855918514   11.58943089283489
H        -2.03727593695287   10.16200307735872   12.04005115772117
C        -0.94141197394151    9.96163295643492   10.21108879624766
H        -1.81358842947537   10.06125401754846    9.58267358975945
C         0.30119147160250    9.77416737283428    9.63550100601213
H         0.39705967291471    9.71832122202746    8.56055742261321
C         3.91358781507596    9.17139170684501   10.70333798763841
C         4.06669979330616    7.87420647371664   11.18097773115873
H         3.35246485726821    7.11345163590406   10.89607116358404
C         5.11881862054204    7.55394557255330   12.01775357155270
H         5.23183331551111    6.54031202490004   12.37276141278799
C         6.03284461156062    8.52805810337669   12.38293421378097
H         6.86500092772954    8.27536320469717   13.02260554283723
C         5.87828395464247    9.82333166090002   11.92290234224981
H         6.58827561511279   10.58717856632385   12.20156613853189
C         4.82035230136016   10.14728327380895   11.09115298768152
H         4.71641043241820   11.16245563172137   10.73574949542319
Br        2.65998267652961    8.16746502938691    6.18699290707933
N         5.42716196451971    6.15577768023805    7.02044790485544
N         6.22405815031104    7.21899506314744    5.29799048755472
C         5.50881552725114    7.36274677904654    6.43299203263726
C         6.07410187739162    5.21508302839029    6.25585075116120
C         6.25258858352673    3.85226869475297    6.42943667950903
H         5.87470338401881    3.34429882747806    7.30222772795045
C         6.93571387878545    3.17829405108365    5.43663736797398
H         7.09590670594501    2.11523414355720    5.53082660323529
C         7.41542164452040    3.84183564952561    4.30910432997754
H         7.93295861380197    3.27720812786120    3.54867866512643
C         7.24667669231123    5.20186570000026    4.13278639344722
H         7.61879984579329    5.69444663243056    3.25041062734825
C         6.57654753446888    5.89502741632329    5.13107974964124
C         4.75028489378285    5.90287550669962    8.26872257000298
H         4.32754949917692    6.86749701821421    8.59838226269287
H         3.92475269437217    5.20281250573402    8.09863848052039
C         5.68404109915538    5.38420621235676    9.32958279192554
C         5.33654587280362    4.28139601497993   10.09687303267154
H         4.39226031904868    3.78308066686986    9.92451811368823
C         6.18936247331568    3.82145840896625   11.08485175241012
H         5.90903198143020    2.96417473529413   11.67948782652146
C         7.39844119858969    4.45753917532313   11.30879323123667
H         8.06392971587149    4.09665899944193   12.07911381082787
C         7.74899355835301    5.55867574020697   10.54603780790709
H         8.68683131146971    6.06399432095178   10.71985181288723
C         6.89515163101332    6.02274060478839    9.56293788726677
H         7.16840165765750    6.89293577806217    8.98582997924244
C         6.52408998118154    8.34832126939098    4.43162546406602
H         6.63052598203360    9.21583572195859    5.10667468183827
C         7.86361367335124    8.16513533925702    3.75240382409217
C         7.99436242047030    8.11984805913532    2.37166977478088
H         7.12083823953888    8.21876393921799    1.74359788632732
C         9.24179208674130    7.93968083316593    1.79827963474620
H         9.33481444685694    7.90402126737403    0.72277188252217
C        10.36314205369566    7.80039508265415    2.59751386175908
H        11.33355417887124    7.65427890787700    2.14691957670399
C        10.23757387678349    7.85436048974548    3.97584402330566
H        11.10979443826555    7.75511184793726    4.60429150502605
C         8.99498335438340    8.04192277218244    4.55139364635403
H         8.89910932292409    8.09784929568618    5.62635346257437
C         5.38257937433443    8.64474205193856    3.48346637068539
C         5.22950730843322    9.94190191451707    3.00576700531804
H         5.94372353025691   10.70266570666776    3.29069730760356
C         4.17741854172265   10.26214183292352    2.16895210740178
H         4.06440902604100   11.27577167456545    1.81393661408617
C         3.26338465134838    9.28803328487589    1.80379099227115
H         2.43124553331721    9.54071542658478    1.16409122866863
C         3.41790921533608    7.99277640566303    2.26387724718356
H         2.70793222364058    7.22892232408759    1.98519623027735
C         4.47581567038929    7.66884214657140    3.09566602976656
H         4.57975662123512    6.65367107381443    3.45107202181639

