39
CSD_code = WOCPIQ | q = 0 | S = 0 | Stoichiometry = C16H17AuBrN3O | MND = 2
Au        5.54823896501022    5.18824761807720    5.00885246409036
Br        4.71468672638263    4.95965378184894    7.20485880164385
O         4.05182776820484    7.65965000946092    0.76378676626200
N         7.02399827907787    4.49366330465300    2.46309425792584
N         6.19598679464986    6.49491929969618    2.36087426415983
N         9.71086468928769    2.66634412490090    2.48742002088564
C         6.29560604564073    5.39965618305053    3.13997936896893
C         7.40959093123500    5.00536339147507    1.24300064890516
C         8.17565131022768    4.48032466635925    0.21295908548484
H         8.61731915958674    3.49990687795277    0.28826573147836
C         8.35928678603151    5.28336223414388   -0.89526342877028
H         8.94928920509744    4.91629039589681   -1.72091153919439
C         7.79897305319867    6.55900486509997   -0.97779622891035
H         7.96457689422616    7.14596914181168   -1.86819932023475
C         7.04214054958101    7.09015987556298    0.04782344822212
H         6.59683758740825    8.06813211318560   -0.02581043619091
C         6.85809880242464    6.29456726758887    1.16861397103819
C         7.40560075413953    3.19162990106824    2.95027453734019
H         7.25664427926797    2.45531373183199    2.15655130995444
H         6.76963246927407    2.95139833093535    3.80651852986802
C         8.86039693438449    3.18935762063262    3.35913738558117
C         9.26598512201261    3.74286762673772    4.56756223565674
H         8.53890342268339    4.15835287415048    5.24941131563990
C        10.61674173593014    3.73877346750478    4.87386505057623
H        10.96709406390045    4.15620791183212    5.80617260845466
C        11.50612231808702    3.18678347971371    3.96473072348519
H        12.56533528381437    3.16159847174728    4.16607192690800
C        10.99806062104581    2.66379826757950    2.78577989343089
H        11.64637920640984    2.22020905608906    2.04158007663569
C         5.44281524780423    7.67078382778029    2.70277940308660
H         5.93912220732469    8.54414309451655    2.27493501496015
H         5.41275820592126    7.75855790420790    3.79163269887993
C         4.01122341558790    7.59408765062822    2.16867095339971
H         3.54240560921800    6.65328698861523    2.49787959992845
H         3.42471701434948    8.43097636933652    2.57716292942656
C         2.78376732485433    7.55203415569713    0.16861020755815
H         2.94037233197344    7.61640909641960   -0.90580978205804
H         2.12296004660477    8.36446419024648    0.49365650060221
H         2.31048883822060    6.59365083196797    0.41347900491737

