89
CSD_code = WOCQEL | q = 0 | S = 0 | Stoichiometry = C34H52P2Pt | MND = 4
C         8.74507685404642    0.53844287475544    6.76952712655910
C         7.58045854509284    0.85096653413777    6.63860958818584
C         6.22361118273988    1.21754775004469    6.46479639472554
C         5.32806471470997    0.31728165917385    5.88914454975898
H         5.69244056514156   -0.65769383671218    5.59192708602905
C         3.99635243069660    0.63877231591927    5.69416350435157
C         3.53854693276483    1.90059981529927    6.08305730810079
C         4.43298209249417    2.79529030092108    6.65516224469499
H         4.07567084457144    3.77251737323186    6.95454627745269
C         5.76582617259272    2.48260958562984    6.85538885804689
C         3.06223447043872   -0.35518789494448    5.07096796220689
H         3.58524793626920   -1.27886236989002    4.83372168272706
H         2.63138854016770    0.04412278041882    4.15251301994359
H         2.23984045253118   -0.58793669336950    5.74765978131475
C         2.10404927041250    2.28910049097191    5.88624116774475
H         1.44260240311769    1.61028193246575    6.42521914038693
H         1.83334440592982    2.24484428261443    4.83096397363670
H         1.92640550859071    3.30025360427000    6.24508400177787
C         6.70631652520770    3.46431681382552    7.48857067796270
H         6.30743769192541    4.47526724772529    7.43735754354260
H         7.67534678654397    3.43438404428308    6.99198799598814
H         6.86191303320435    3.21102131865862    8.53946741846953
C        10.45126006084163    2.54876122223747    9.09751487226271
H         9.41081979692719    2.80198015240123    8.88001894185689
H        10.71627480322815    2.96829033648673   10.07112542498464
C         9.09196079959935    0.20530427786613   10.08037916425688
H         9.12040780462594    0.64630191619340   11.07959211896095
H         8.22237305984751    0.59887605007432    9.54718308685898
C        12.00756741494878    0.35001384407114   10.19627943016311
H        12.21512829123914   -0.71930279150017   10.09829992859251
H        12.85539929891007    0.86884837089551    9.73957956607494
C        11.35551621066805    3.08706952788094    7.99375428421500
H        11.10866600609519    2.57925066091404    7.05232709141769
H        12.40301034999963    2.89485975702343    8.21978773139946
H        11.22046698099178    4.15864269939005    7.85769440752375
C         9.01379153346769   -1.31517621261551   10.13153572708759
H         9.04037585769805   -1.70816065364586    9.11342654871949
H         8.09010791169185   -1.64403827540769   10.60360022748172
H         9.85344409359604   -1.73433092263266   10.68339718404385
C        11.87000864375691    0.73372045958759   11.66312542242699
H        11.59090920828094    1.77916425515454   11.77824065220858
H        12.82110331736129    0.58268388706667   12.17067730750083
H        11.12385493143958    0.12061295423252   12.16296524972980
P        10.56417342277670    0.71199996519909    9.10264998702678
Pt       10.66551967529269    0.00085961307245    6.94965704075299
C        12.58610197343766   -0.53659058235790    7.12962348898341
C        13.75048218760635   -0.84997547319076    7.26055424920185
C        15.10721911687378   -1.21720020443259    7.43407706782237
C        16.00335106694074   -0.31733823180829    8.00946444463984
H        15.63952456614378    0.65784492242610    8.30667946538860
C        17.33495534716139   -0.63945419704028    8.20417050171928
C        17.79205794065896   -1.90156006505725    7.81535743722080
C        16.89707687694544   -2.79582008902513    7.24344684183963
H        17.25384352264290   -3.77324231173778    6.94404792809867
C        15.56436098394670   -2.48247643768534    7.04340508921547
C        18.26973912495598    0.35414519436819    8.82693998890554
H        17.74720101709378    1.27803328491779    9.06439331948636
H        18.70086845034695   -0.04530732705827    9.74519745136402
H        19.09190270160934    0.58654898432499    8.14984623512858
C        19.22635658823372   -2.29084397205210    8.01207891915171
H        19.88818214953825   -1.61224623323959    7.47329430956404
H        19.49705335242392   -2.24700270538975    9.06737829518479
H        19.40347097428969   -3.30200645349825    7.65299806848081
C        14.62340966754897   -3.46375068594582    6.41024379995882
H        15.02180889939182   -4.47489018602425    6.46147273509798
H        13.65438867269681   -3.43335786960976    6.90680807506562
H        14.46802520640913   -3.21039241951917    5.35932728579300
C        10.88422057713468   -2.54737597577913    4.80295231674069
H        11.92544896558783   -2.79763248583616    5.02004030863710
H        10.61982281703793   -2.96812825259638    3.82970574944810
C        12.23612823503016   -0.20071843784086    3.81721662528983
H        12.20803250634762   -0.64292203121728    2.81852720427952
H        13.10747346319028   -0.59102241917330    4.34995699455696
C         9.32078296798200   -0.35348208871498    3.70487938975405
H         9.11053688329704    0.71535956015642    3.80229281254334
H         8.47488912557474   -0.87416308518698    4.16307558769661
C         9.98200495634701   -3.08753551484626    5.90748464409367
H        10.22776854234424   -2.57835569107658    6.84846830540325
H         8.93384287806674   -2.89861713179170    5.68176081533910
H        10.12029236063630   -4.15860697815883    6.04423063938457
C        12.30943928919921    1.31994960721045    3.76422355627917
H        12.28244167735897    1.71408399677500    4.78187075117451
H        13.23165364896433    1.65121584839578    3.29096194211080
H        11.46797677980568    1.73577308386137    3.21260269574608
C         9.45744095374650   -0.73803234608901    2.23817416969652
H         9.73915179586639   -1.78282873105247    2.12354398259819
H         8.50528229610835   -0.58993486331345    1.73175387462704
H        10.20131604171743   -0.12337037062837    1.73685107304643
P        10.76647601932515   -0.71094365786451    4.79693286508985

