98
CSD_code = WOCTAL | q = 0 | S = 0 | Stoichiometry = C54H36Br2IrN5 | MND = 6
Ir       -1.70861869920310    8.61664250972973    5.43505742474151
Br       -0.52238885838082    7.04913875904749   -0.35397799860904
Br       -0.00974430416680    4.86275955742206    9.91733397942364
N        -0.71893875274413    7.72618819082707    3.65342807867762
N        -0.36685599678568    5.56339457617312    4.69106760004740
N        -0.70586720936857    7.04472782065085    6.57219485242010
N        -3.23971804576582    7.42234358720868    4.81140454825802
N        -0.27159806322481    9.86328517926743    6.02607022134552
C        -0.74245000529762    8.10042610533090    2.37918253337950
C        -0.55913105307102    6.96983577432098    1.53101954869292
C        -0.41603931488551    5.85323969334991    2.32195958620636
C        -0.52491315070986    6.35667381879770    3.66758311232617
C        -0.40192382653181    5.83758522553494    5.96598989794495
C        -0.13926574984881    4.83105942502176    6.96374903819025
C        -0.28264977298624    5.50069921236627    8.16153791660541
C        -0.61153073160077    6.85247794814375    7.87967872092204
C        -0.19592611937652    4.45972842565893    1.98457240971164
C        -0.82366422013431    3.45915218044914    2.72889934559393
H        -1.48582222434927    3.73731470549219    3.53383697423734
C        -0.60195133131466    2.12791942089555    2.43744636134690
H        -1.09061482607299    1.36357628168668    3.02411738872797
C         0.24606464691215    1.77174136600990    1.40135561924732
H         0.41850035547956    0.72969856573185    1.17483123183505
C         0.87441577943287    2.75735424421262    0.65813278414288
H         1.54161499560829    2.48571955257357   -0.14692320264573
C         0.65767895962659    4.09139024253717    0.94456612214895
H         1.17323574558048    4.84940375393941    0.37485241716402
C        -0.87575991341888    9.47303129019484    1.90132455721676
C        -1.82186676403597    9.78304162466023    0.92677744708873
H        -2.50653198126507    9.02318264290195    0.58081355317614
C        -1.90617460106210   11.06473143737015    0.41936518833417
H        -2.64442020039551   11.29252501981158   -0.33488570887383
C        -1.04693954729759   12.05174334324843    0.87046790565889
H        -1.10942197824953   13.05086911300532    0.46550569161543
C        -0.10632261640526   11.75236984225930    1.84106514655684
H         0.56871724252366   12.51760523969773    2.19615614972293
C        -0.01993811788827   10.47321522478485    2.35441228519763
H         0.72824920541831   10.23893961140345    3.09461351158982
C         0.17461904049622    3.44367137878202    6.68218501248702
C        -0.31012619301303    2.41959946187692    7.49753451582741
H        -0.92991773966944    2.65510876619409    8.34925038751339
C        -0.02654156891946    1.09964619161240    7.20558377649743
H        -0.41120818783428    0.31725398611359    7.84362927132008
C         0.74238240234371    0.77794283153851    6.09906455964810
H         0.96291636312719   -0.25540798572018    5.87442639211893
C         1.22583539456516    1.78721318530577    5.28230952445291
H         1.82339012436099    1.54389114845452    4.41582314426758
C         0.94703985743074    3.10886678514048    5.56828347876241
H         1.32601315350624    3.89317523154924    4.93315712686668
C        -0.75723954744676    7.89726171487557    8.89662648744105
C         0.26925786636461    8.81478110783541    9.08999076981090
H         1.15100048090231    8.76758130046223    8.46600596558168
C         0.17063026389846    9.76464467450201   10.08939153577498
H         0.97639442095445   10.46856113456588   10.23938623077635
C        -0.95164828959978    9.80782712012400   10.89776072901047
H        -1.02732398414932   10.54999318847744   11.67848087136515
C        -1.97297397323419    8.89181815196913   10.71217097130348
H        -2.84691613983428    8.92009004629295   11.34523093956701
C        -1.87484249290333    7.93338322370017    9.72198159687849
H        -2.66720667271055    7.21368669494035    9.57962273942978
C        -3.44199381598101    6.15651654206681    5.17382623208801
H        -2.88947195329102    5.79956826559361    6.03154470460891
C        -4.30597926880096    5.30655694636573    4.51233516252064
H        -4.41782759969351    4.28650991264539    4.84258054752270
C        -5.00714560764827    5.79407078037607    3.41756323045073
H        -5.66769048510318    5.15209778874620    2.85498684085462
C        -4.85331235685887    7.12160805292257    3.07458329271569
H        -5.40026082457298    7.53393108374109    2.24245196299170
C        -3.97571161270749    7.93301663905297    3.79502731706048
C        -3.77420425221046    9.35374928655234    3.56178745573202
C        -4.57286274227995   10.11571950382296    2.70832557841746
H        -5.37543008676266    9.65612893798404    2.15032255596581
C        -4.35163652356224   11.47038812525735    2.58575609497029
H        -4.97213984392712   12.06413580648064    1.93104113719235
C        -3.33233923780028   12.06782611050064    3.31138703476954
H        -3.16038439902414   13.13075331289390    3.21981157844766
C        -2.53781430948459   11.31334369925959    4.15625577499759
H        -1.75584274164221   11.81377200579643    4.71107978453571
C        -2.73103782612732    9.94432568359322    4.30395265699808
C         0.98969707541179    9.81251334527257    5.59879168221544
H         1.23230266305952    9.00785431365100    4.91715869216672
C         1.95939299067623   10.71020117729109    5.99866098178473
H         2.96607571878579   10.62543250110769    5.62142060078193
C         1.60568428130625   11.71834201505790    6.88729701411701
H         2.33148436741155   12.45183306193400    7.20399981202761
C         0.31512184762793   11.74685671544108    7.37474892584980
H         0.01974541379228   12.49637850466232    8.09040944200570
C        -0.61297987603531   10.79519516463182    6.95163536169429
C        -1.96059743666749   10.64360716661269    7.47195468635932
C        -2.51765903512675   11.44767497459888    8.46490445605933
H        -1.96961180629857   12.28868002047500    8.86305743435552
C        -3.77931862479964   11.16951129833877    8.94696426258355
H        -4.21481184170419   11.79116888038037    9.71522565382553
C        -4.48519227665931   10.08653853405149    8.44540753727016
H        -5.47167620633751    9.86584845717045    8.82833137899104
C        -3.93912807068563    9.29216768636337    7.45166614860995
H        -4.51914053542445    8.46151606979763    7.07209945440733
C        -2.67172669412328    9.54574177902622    6.94126926602893

