104
CSD_code = WOCTEP | q = 0 | S = 0 | Stoichiometry = C58H36Br2IrN5S2 | MND = 6
Ir        3.14076654040100    5.39761411916646    3.10839482205876
Br        5.27213102989681   -0.22522869957295    4.10558337387570
Br        5.93079739969560   10.13786633373775    5.66378511914533
S         3.44417749410734    7.50154271868849   -0.82426053527187
S         1.48562154883569    2.45354665903420    5.99788823049471
N         3.80776470497664    6.15588919193080    1.34948535869310
N         2.32666696325608    4.61327798945197    4.85857378904467
N         4.57719272208377    3.74123174879039    3.49179195490250
N         5.62636038381189    4.86844263049027    5.35970878005574
N         4.58620228768913    6.64931332434921    4.10176232270178
C         4.99535936129927    6.07162214271870    0.67397288281794
C         6.16978218268177    5.45948940554778    1.11211616066903
H         6.19069730873431    4.98798654078045    2.08194659256560
C         7.28303029865869    5.49103452714329    0.29948405967605
H         8.19709378091387    5.02327400316517    0.63214909932855
C         7.25004394674366    6.12005110855497   -0.94383140703615
H         8.13437717523016    6.12554553581812   -1.56192357667878
C         6.10502113632765    6.75242320943275   -1.38749490885952
H         6.07595387040141    7.25944389222563   -2.33870078497315
C         4.98851442892175    6.73349639394477   -0.56831962887402
C         2.92831703180961    6.91628920199729    0.72404686354100
C         1.72384729455954    7.26215043812488    1.40971274921791
C         0.74154732888361    8.11476797356237    0.90807270065461
H         0.83310724530867    8.50767462299662   -0.09474370043446
C        -0.32953956998701    8.44475951793531    1.70855674545316
H        -1.10209281541503    9.10263399914998    1.33995615878234
C        -0.40998345125228    7.92995577792076    2.99678942084391
H        -1.24903173212176    8.19689100745388    3.62382102090518
C         0.56416042523516    7.07635549131009    3.48750109065306
H         0.46255336347368    6.69117183416986    4.49282032854335
C         1.66142308662823    6.71632207982656    2.71349841891904
C         2.56213249693971    4.79676356261230    6.19578124823691
C         3.03792774627599    5.94956172032979    6.81954472068804
H         3.20470805547234    6.83994655342372    6.23780609686009
C         3.25666795657424    5.93238904529349    8.18008592815314
H         3.64503695130420    6.81428180710267    8.66566565018028
C         2.98161964013675    4.79750352662474    8.94014748749625
H         3.17587476245715    4.80579375274153   10.00127124395971
C         2.43491524879329    3.67128434338632    8.35672483625474
H         2.18057774186169    2.80143259727712    8.94087229539389
C         2.21686156245188    3.68604107989449    6.98968747337644
C         1.72285509894936    3.47022842157757    4.61163379908786
C         1.30734919623930    3.17916686848900    3.27250754717678
C         0.43582690938989    2.14087959753632    2.94481224865917
H         0.07798267293094    1.47661607537379    3.71941956481628
C         0.03462623234596    1.99151840163321    1.63594098795860
H        -0.64675859656869    1.20035652563064    1.36210020974385
C         0.51071342100937    2.86792277631502    0.66966639265673
H         0.19251531479925    2.75246959486355   -0.35648909651986
C         1.38733439353619    3.88751113485190    1.00115285761171
H         1.73354691082861    4.54413907986031    0.21493246836299
C         1.81678381897755    4.07804974115034    2.30945668428342
C         4.51054281941015    2.45468811252647    3.15721366471782
C         5.12570322570525    1.65485834645576    4.16552112657536
C         5.59822177736733    2.48853277276373    5.15390246367779
C         5.23983918117931    3.80883611396711    4.70373342917384
C         5.40431344284596    6.12406519841430    5.08831596193041
C         5.99864555073026    7.18574495213120    5.85893820939357
C         5.52752830344810    8.33799069553908    5.26202350619716
C         4.67515461326211    7.96869320490876    4.19087832252213
C         3.96921387759413    1.95443724130528    1.90010216102220
C         4.32666898222336    2.56137319907348    0.69736723009902
H         4.98827351907842    3.41209815355187    0.71159806227622
C         3.86635636037495    2.06096784162175   -0.50377676512208
H         4.15804627540963    2.53842913370540   -1.42823009869827
C         3.04341623197094    0.94717238161915   -0.52472498131444
H         2.68884375122684    0.55186188959022   -1.46509185641013
C         2.67854846862061    0.34171227498314    0.66524287576684
H         2.03364559648131   -0.52424836620008    0.65680625359915
C         3.13520863283645    0.83830987334615    1.87074227834372
H         2.82033672548393    0.37108618859690    2.79109904705722
C         6.29665149617338    2.21774311482377    6.39586131478948
C         7.26416273352528    1.21648780419986    6.48649700234552
H         7.51486162255402    0.62588999320019    5.61886449213065
C         7.93217932993868    0.99605008517073    7.67544068387362
H         8.68193080890456    0.22022891886001    7.73002080273123
C         7.64947007700584    1.76772446257386    8.79061467612168
H         8.17434034621845    1.59205156288410    9.71825289388749
C         6.69385273431879    2.76734354295642    8.70904958967129
H         6.47164657939437    3.37836390390342    9.57181836939508
C         6.02149391945493    2.99298937381002    7.52462183994838
H         5.27778343275119    3.77158656489931    7.46649303189587
C         6.83559419769718    6.98826140132778    7.02547323258298
C         7.71409500415765    5.90525278039749    7.09156631742575
H         7.79476243891831    5.23824104683554    6.24870140973309
C         8.47364853105895    5.68854952020557    8.22399289925450
H         9.14604147613570    4.84382181219738    8.26136800483527
C         8.37486982439325    6.54646886630925    9.30724233939089
H         8.97113950140875    6.37604694909337   10.19168801900996
C         7.50730885509244    7.62506206414352    9.25125633886942
H         7.42255700003674    8.29587781880377   10.09397021384105
C         6.74269593954389    7.84651207536806    8.12265699325055
H         6.05360044608621    8.67701696158429    8.10170665432335
C         4.00062955733101    8.91162871102608    3.29178651102523
C         2.81822336874287    9.53316621608826    3.67483009270091
H         2.37620185806594    9.29896056967197    4.63180307023604
C         2.20992502082062   10.44296785312187    2.83071982292763
H         1.28845736973656   10.91825648899315    3.13121774413897
C         2.78178745047872   10.74721695460619    1.60737194589637
H         2.30696039118337   11.46087869265314    0.95089419278314
C         3.96899645006622   10.14402375816614    1.22989843824434
H         4.42429610500759   10.38858603278210    0.28112803677329
C         4.57880912417353    9.22852543317519    2.06795737460846
H         5.51205936788767    8.76161853238811    1.78251061477670

