35
CSD_code = WOCWAP | q = 0 | S = 0 | Stoichiometry = C8H18CdO8 | MND = 6
Cd        1.83132130466248    0.79975257076693   16.32326130253997
O         0.25709926910850    1.76897985394891   17.11720768629694
O        -0.61500739666038    2.51125130959991   19.01324956630316
O         2.42033754208936    0.87071632034481   18.46155963109408
O         0.30679780859878   -0.94068416181338   16.61383287965052
C         0.31634686153991    2.11205169279968   18.34797249822448
C         1.74144632914258    2.02494914612330   19.00967946711558
C         2.49732042559351    3.29754954971546   18.63079827947701
C         1.62181222928974    1.86869553677251   20.52227626061490
H         3.46548785567695    3.33331071703769   19.13252801204933
H         1.92025982462728    4.17045803774555   18.92571732689978
H         2.65756898942830    3.32810910344160   17.54985624516613
H         2.59190290240588    1.98178277948506   21.00296852191698
H         0.93764281361615    2.61976195498246   20.90422979697033
H         1.21793079553363    0.88725482653921   20.76082742171385
H         3.36731813528721    1.01567239899326   18.60218151940998
H        -0.34814434796686   -0.28273192228978   16.89675914717943
H         0.54989313601017   -1.42687067704873   17.41044225419817
O         3.40615394658055    1.76802813823472   15.53026793047348
O         4.27840137455420    2.51688256100722   13.63692384535505
O         1.24321807263842    0.87247749470462   14.18462174028755
O         3.35795770266512   -0.94035207903733   16.03668118736518
C         3.34719435018545    2.11408545187652   14.30032072552504
C         1.92290642581794    2.02652162947261   13.63715221177124
C         1.16669205700539    3.29930597520134   14.01490451363058
C         2.04444373733338    1.87002470976094   12.12470665891802
H         0.19980018100525    3.33585446271536   13.51081020745626
H         1.74495368108779    4.17203558951114   13.72182763600352
H         1.00385185691650    3.32937805779388   15.09547134608384
H         1.07521569244451    1.98421322007351   11.64255169438942
H         2.73003649578765    2.62035534193856   11.74381967285369
H         2.44757064368054    0.88811162933031   11.88677682080342
H         0.29646234165767    1.01752997174981   14.04269550946843
H         4.01162472977092   -0.28131464170078   15.75327233041022
H         3.11748223291809   -1.42934654978108   15.24104815236508

