75
CSD_code = WOCXOD | q = 0 | S = 0 | Stoichiometry = C24H46Cl2P2Pt | MND = 4
Pt        4.42988565266188    4.58164820583694    0.00006941166039
Cl        2.65361383410725    3.08575746640484   -0.17738281389212
P         5.68501163876000    2.71258719026004    0.44377252958676
C         4.99175679330637    1.56116484565273    1.69581685975386
H         3.99246837657448    1.26606439385409    1.35096743162490
C         4.79963037258592    2.39510673464025    2.96761921729866
H         4.15371516235263    3.23905184976645    2.68858160775675
H         4.26376043450128    1.80571281941178    3.71696705920795
C         6.07976567938225    2.94728598805484    3.59371423579502
H         6.60571015088354    2.15576545965017    4.12496552582454
H         5.79420460024813    3.68489076053795    4.34943056855578
C         7.01651438576547    3.63841602394775    2.60167460040117
H         7.96185737658002    3.85619783433176    3.10636424899380
H         6.57204988692902    4.59828269471729    2.31906362681621
C         7.31033670877459    2.88932498236420    1.29332114544582
H         7.94330471011509    3.55147220580119    0.69013238634310
C         8.03948973932218    1.55208705444236    1.43383520022612
H         8.27270195737814    1.18379433616221    0.43111447722704
H         8.99702518109775    1.73419520454699    1.93104835735333
C         7.29706371531263    0.46066438307437    2.20626758219076
H         7.80866911279153   -0.48968582468773    2.02568485694816
H         7.37674609374229    0.64961053594599    3.27473404446447
C         5.82777609404304    0.28436235111091    1.81821118302053
H         5.35419318609206   -0.36783207798114    2.55827067982523
H         5.77813351361822   -0.23629237148682    0.85778383581293
C         5.85846548887249    1.70614603262669   -1.08747033863731
H         6.75270214735103    1.07992249369275   -1.06587643797008
H         4.97543633908327    1.05837922064921   -1.11330852702757
C         5.86165858045915    2.59929731726334   -2.33217121443106
H         4.99018250210556    3.27111439118595   -2.26487565148351
C         7.12406829959220    3.45207067763690   -2.38255715564555
H         7.15685301292472    4.12600573111092   -1.52701906701720
H         7.14092386989616    4.05541840159373   -3.28751997231654
H         8.01394970729035    2.82474569329150   -2.37154590593736
C         5.72349131392148    1.74928216981720   -3.59178871757061
H         6.56224361989561    1.06053225673263   -3.67934228395987
H         5.70696781750408    2.38100095329267   -4.47685681383190
H         4.80249045436560    1.17113564706461   -3.56713092064268
Cl        6.20609898179364    6.07737631587492    0.17745614889630
P         3.17446971121669    6.45051372192569   -0.44380077519079
C         3.86775017486068    7.60192143885256   -1.69583807795167
H         4.86705585757088    7.89702940411336   -1.35100672298786
C         4.05985736492754    6.76797066002310   -2.96763962835768
H         4.70577022361389    5.92402380432489   -2.68860240834533
H         4.59572277243239    7.35736017323820   -3.71699233251832
C         2.77971210078565    6.21579528506786   -3.59372244693609
H         2.25376305533155    7.00731615033080   -4.12496401758448
H         3.06526655892013    5.47819518678508   -4.34944879174439
C         1.84295899827344    5.52466320479378   -2.60168501759163
H         0.89761394386895    5.30688745654661   -3.10636620895535
H         2.28742936796074    4.56479683929333   -2.31909282475678
C         1.54912346703906    6.27374036376513   -1.29332746749853
H         0.91617675301027    5.61158700457762   -0.69011591975251
C         0.81999373530910    7.61099268536264   -1.43381644292972
H         0.58679867340971    7.97927616400136   -0.43108879004024
H        -0.13753827872568    7.42888085832378   -1.93102249895419
C         1.56241861366331    8.70241700083543   -2.20624834163564
H         1.05081582498803    9.65277080061981   -2.02565621551191
H         1.48272003129973    8.51348101045859   -3.27471530613025
C         3.03171668465786    8.87870966308950   -1.81821472610958
H         3.50528644479314    9.53089511149056   -2.55827928453195
H         3.08137345184858    9.39936710330117   -0.85778862255277
C         3.00105611772504    7.45692205911647    1.08746369050084
H         2.10682365228406    8.08313988524345    1.06587713878168
H         3.88408569198839    8.10469144232641    1.11330829629977
C         2.99786947955576    6.56376188639207    2.33216081596394
H         3.86934516362184    5.89194292756853    2.26485633902076
C         1.73545288734080    5.71099987475975    2.38255498970035
H         1.70264482363026    5.03707774182735    1.52700919378546
H         1.71860854844270    5.10763980694925    3.28750950675396
H         0.84557391020461    6.33833013430344    2.37156527026222
C         3.13604740505069    7.41376825640387    3.59178470094713
H         2.29730144342131    8.10252565498802    3.67934445511627
H         3.15256524717553    6.78204281495027    4.47684908449944
H         4.05705360651919    7.99190607585899    3.56712838626788

