53
CSD_code = WOCYUL | q = 0 | S = 0 | Stoichiometry = C24H22AuClN2OP2 | MND = 2
Au       14.11104330572794    2.68125153878647    1.71353396971025
Cl       15.30929433524381    2.29711761310815   -0.16677259680539
P        12.95170063618204    3.07969528838058    3.58647298180841
P        13.45270434177240    7.27135323047744    4.54112922947444
O        12.30508942565686    7.26706089503424    5.46486030233449
N        14.44473460637789    8.62684725637413    2.47402675850334
N        15.80470111337008    6.36442858641535    5.45575935045561
C        13.55583967207432    4.54449899493196    4.49732877890817
H        12.89416018011697    4.75738614273107    5.34695122218359
H        14.54871881900480    4.31507166601892    4.89535827149868
C        13.62539539987570    5.73685581619458    3.54989241963493
H        12.79018118874754    5.72638618967527    2.83870201456930
H        14.55765735341997    5.76388725247780    2.98777139572340
C        11.17536701023888    3.35169684822494    3.34821999445685
C        10.53014408289794    2.37507012464751    2.59042223602029
H        11.10918075151596    1.54577637316704    2.20149876278058
C         9.17567262223973    2.47057796885358    2.33933133710501
H         8.67900235320843    1.71080174400038    1.75455630847003
C         8.45909432428538    3.54997129223277    2.83365961469705
H         7.40108135991088    3.63157847919172    2.63354478362370
C         9.09932319592763    4.52646721425049    3.57806834703513
H         8.54137010118610    5.36904652551018    3.95913279888699
C        10.45603499631384    4.43542113311022    3.84057479007602
H        10.93555582640774    5.21041099059113    4.42079090915282
C        12.99463699429000    1.78266614171585    4.85279849142650
C        13.94627987765488    0.77489799513012    4.74834630177449
H        14.62453598754642    0.77243677932314    3.90420519091902
C        14.01232900027810   -0.21266749246831    5.71503650001794
H        14.75068239667126   -0.99644770570198    5.63482159356035
C        13.12764304397909   -0.19657811471881    6.78088839090360
H        13.17687723266918   -0.96975475759262    7.53311467629931
C        12.17488105396879    0.80582890778703    6.88327290098565
H        11.48463237255448    0.81241650786777    7.71391446668302
C        12.10394296644498    1.79663714307258    5.92252715009347
H        11.35798164699392    2.57668950278777    5.99140815460662
C        13.42468103307594    8.61986960106563    3.32324840790564
C        12.40638574776785    9.56153791272019    3.31391104125590
H        11.61094268397639    9.48560652518190    4.03998727889032
C        12.45878300490124   10.56683655939405    2.36087935798784
H        11.68975035875121   11.32465876246334    2.31429979179084
C        13.51968107993812   10.57923056049944    1.46888862185957
H        13.59917866545448   11.34300318614857    0.71103170724373
C        14.48552855825506    9.58450870026656    1.56797516210209
H        15.32954075522157    9.55278115734512    0.89164677143415
C        15.05415566452371    7.45307055366910    5.39698953609678
C        15.40029269103958    8.65715732258195    5.99268057022908
H        14.72957411095844    9.50157879874538    5.91610722258488
C        16.60566353719077    8.72831127945979    6.67034777736349
H        16.92008345566932    9.64721257335920    7.14408180676752
C        17.40241954439765    7.59437304209415    6.72645585138328
H        18.35046722636402    7.60588988839991    7.24141321340432
C        16.95282341831705    6.43760446898404    6.10663118010470
H        17.53617888896145    5.52598503621374    6.12947690398635

