75
CSD_code = WOCYOE | q = 0 | S = 0 | Stoichiometry = C24H46Cl2P2Pd | MND = 4
Pd        6.43022119485791    4.81669691931190    4.24429506801558
Cl        8.13151111679751    6.33481611869439    4.49011591125434
P         7.67686295609069    2.97677864702988    4.68353241852255
C         7.85174761567716    1.99057094058952    3.13625391399172
H         8.78826896629226    1.42793937535615    3.11593921658077
H         7.01325400158502    1.28546914562458    3.13188343000564
C         9.01028621344310    3.89701245152141    6.84402840313654
H         8.58982936884355    4.86692030937839    6.55322038057602
H         9.95475432102267    4.09574140380228    7.35811260717122
C         9.30196641968626    3.13545709332422    5.54084812887570
H         9.94452500324521    3.78720661141806    4.93451126477119
C        10.01323820898631    1.79016042228227    5.69314228184086
H        10.97720860799664    1.96396305923909    6.18073844547522
H        10.23171992954674    1.40346566793670    4.69388952655378
C         7.75292065500134    2.90301491656540    1.90590285707169
H         6.83080233401491    3.51171793108004    1.99992145812461
C         7.78905335265882    0.55905304529475    6.08904298869499
H         7.74349114846712    0.02814120356242    5.13357550413085
H         7.30178045640402   -0.07918480950591    6.83226311585441
C         6.96420725945279    1.83985440434914    5.93714930000992
H         5.96744765718606    1.54513010888267    5.58370372220116
C         8.95093661902340    3.84678789048761    1.84038793429934
H         9.88295830546607    3.28358811516221    1.82207956399539
H         8.95851445587308    4.51094063617950    2.70828748193882
H         8.90486681659059    4.46121235277520    0.94317710677274
C         9.25753458508451    0.72289607724617    6.48438684537675
H         9.75749281519533   -0.23698404474673    6.32289970959652
H         9.33621686155085    0.93087771781059    7.54934085089630
C         8.04435426230546    3.23471002753779    7.82897255513957
H         8.54054579786178    2.43259956956389    8.37273101346191
H         7.76649319542514    3.98479788974790    8.57550355316713
C         7.64887067386517    2.06338548564214    0.63562924167009
H         7.56210062052016    2.70497083702672   -0.23830446499993
H         6.77543520897306    1.41617520083107    0.67250654463593
H         8.53542941094087    1.44240574429547    0.51709853332005
C         6.76170922455861    2.71097647330114    7.18419627533708
H         6.15135072169755    3.57454179268602    6.86386816133849
H         6.18529743868313    2.15986874085760    7.93259259926547
Cl        4.72895934273212    3.29875256159954    3.99907241882259
P         5.18335515774822    6.65661705383039    3.80501738960278
C         5.00850333089516    7.64295925096215    5.35223753671233
H         4.07190753453764    8.20547214550428    5.37262787348336
H         5.84689679235143    8.34819021659759    5.35657728132332
C         3.84989093153098    5.73655634494584    1.64448756299402
H         4.27034805017405    4.76665583653360    1.93526927509841
H         2.90542771515194    5.53781940871718    1.13039990342298
C         3.55827687366535    6.49814944928392    2.94765517297629
H         2.91575981678937    5.84640385510742    3.55402337462929
C         2.84693530692485    7.84341414657825    2.79535855808653
H         1.88294643663131    7.66962672391976    2.30778608506798
H         2.62849223497525    8.23013036522060    3.79461227335086
C         5.10749424661039    6.73054394235738    6.58259538618318
H         6.02962974362131    6.12188342514242    6.48846703933285
C         5.07115012348448    9.07453385620005    2.39941570848824
H         5.11670209861455    9.60544393583921    3.35488471738457
H         5.55843871838666    9.71276477814478    1.65619036616427
C         5.89584356966095    7.79364109420244    2.55138872104369
H         6.89259806084625    8.08838294866538    2.90480621701621
C         3.90954618416492    5.78669932384608    6.64826675748256
H         2.97749662936980    6.34985244440166    6.66677956153078
H         3.90189528945929    5.12261667541271    5.78030162718763
H         3.95579510465784    5.17222054887188    7.54543390057371
C         3.60268735375276    8.91061154078337    2.00407909336388
H         3.10275748294469    9.87050135594286    2.16555443409449
H         3.52401264941625    8.70259926224435    0.93913123027681
C         4.81585376048469    6.39880445410729    0.65956410080372
H         4.31965795463147    7.20090270974159    0.11578725505901
H         5.09372784759608    5.64867886322787   -0.08692540970700
C         5.21155282611691    7.57023110462993    7.85285368961212
H         5.29838715987252    6.92866867193709    8.72679189153003
H         6.08498831258419    8.21743117987093    7.81594845133535
H         4.32501870063454    8.19122961602285    7.97148529555975
C         6.09849017676165    6.92248925547949    1.30439261108815
H         6.70886236054671    6.05893533607939    1.62474804020472
H         6.67491032079530    7.47361084597291    0.55601116071753

