62
CSD_code = WOCZUK | q = 0 | S = 0 | Stoichiometry = C30H22N4O4PdS | MND = 4
Pd        3.67777580067891    5.54171327418340   11.77633921310606
N         2.26782493660299    4.84025384131368   13.12173036481002
C         2.66195625416361    3.76578423006690   13.79548430444320
H         3.72026731977510    3.53424776259683   13.77151308688424
C         1.80731701299295    2.92794932619191   14.50020986265955
H         2.20312918594799    2.08131673156615   15.03649394122484
C         0.46205701818052    3.19479239328303   14.44634582677732
H        -0.26000547192637    2.54705281064480   14.92105903540743
C         0.01607649823228    4.33722208325790   13.77357082304103
C        -1.37804604364002    4.61256156242917   13.72219011527007
H        -2.05359804710152    3.88571688496816   14.14802380709519
C        -1.82858692404388    5.75706101020871   13.17166924531431
H        -2.88532243560848    5.97650833587925   13.13141002899529
C        -0.92203926180270    6.74046229531163   12.68375624591016
C        -1.43809797892510    7.98452484247148   12.30280219742733
H        -2.50649873514805    8.13580176883089   12.34093254155002
C        -0.59855834697165    9.00677924831151   11.92489128986126
H        -0.99709398878575    9.97507693663768   11.66145389294713
C         0.76404544145621    8.78420817128849   11.87062357743015
H         1.44508194666453    9.56685668007502   11.57662219612481
C         1.31604488125745    7.53967405012979   12.17969183869710
C         0.47618882277397    6.47612579017453   12.63903174276173
C         0.95757501730252    5.21098172705336   13.15003215760308
N         2.65132178426206    7.36753009634208   11.99494610845063
S         3.74874681231638    8.26238023269209   12.72242651504173
O         4.99104288948698    8.16446240051150   11.99239910794987
O         3.30311069514504    9.57132578558996   13.11498693475015
C         3.93844400898095    7.24690929360568   14.20561531860111
C         4.92831910230979    6.26581405849873   14.23125957944765
H         5.71076309715937    6.29310700475907   13.47418450483456
C         4.94334487295032    5.34863345969395   15.26671728320346
H         5.70352162682316    4.58506335100310   15.34587245279971
C         3.94242604990542    5.40687094790490   16.23798422294087
C         2.96387310393252    6.39608999843703   16.21776037406548
H         2.21652846385914    6.41444749727734   16.99638605292999
C         2.96907306612527    7.32294780843773   15.19220587195992
H         2.22973083268915    8.10703480928534   15.13505844869873
N         3.90909793109158    4.40669285064664   17.26845700953372
O         4.74090323880870    3.52225225071288   17.22365497936817
O         3.03852611102918    4.48898217557864   18.11125416468812
N         4.77566414776538    6.16408951422794   10.24449046152658
C         6.09347508396152    6.32630088844934   10.22100322440742
H         6.65626744132117    5.88012535866746   11.03209059840963
C         6.73398883963762    7.02778405951896    9.21478612635008
H         7.80547130738348    7.14679892092597    9.23806682970907
C         5.97704299812459    7.58168479259096    8.19549359641071
H         6.44474462430315    8.14622446147029    7.40315218808374
C         4.60367366469558    7.39241611399613    8.21515299151083
H         3.97542282721195    7.79996742295306    7.43857823621263
C         4.04219095877536    6.67637956753489    9.25751517722437
H         2.96517303192094    6.50930282075895    9.30738934820154
C         4.44266464137492    3.74129418134891   11.40719476040370
C         5.63075246604187    3.26209711389367   11.95361594609249
H         6.21166332308067    3.88445697248617   12.63098330989106
C         6.09154495548976    1.98849604737522   11.65549469312219
H         7.01409147249244    1.63254902230609   12.09255736128025
C         5.37163920601587    1.17209454743459   10.80109393534192
H         5.72937473584586    0.17939540116403   10.56961234007784
C         4.19106018464449    1.63350720290609   10.24475975377510
H         3.62542782824171    0.99957583075225    9.57609247309567
C         3.73410607546129    2.90733853058787   10.54521802336346
H         2.80209359726814    3.25730545082040   10.10141236092119

