141
CSD_code = WOCZEW | q = 1 | S = 0 | Stoichiometry = C54H66AgO18P2(1+) | MND = 2
Ag        5.81149598967742    4.38160587779161    0.41185008329564
P         6.75620773031432    3.94617752233329   -1.75031984647151
C         8.14956510360620    2.79137246917657   -1.65065720936012
C         8.98629904264759    2.99772291577254   -0.54433587134018
O         8.64624439444903    4.05657524002266    0.24471519254100
C         9.43237036087307    4.32381488140459    1.38683173886285
H         8.92521542744932    5.12669741964916    1.91885520269201
H         9.49780566470247    3.45493257761040    2.04712720932868
H        10.44105686275182    4.64096658345059    1.10377505244319
C        10.06335767534667    2.16475097473637   -0.30706617090686
H        10.74143151291476    2.30360711625863    0.51754595793190
C        10.31283737751925    1.09797026512980   -1.17084019901667
O        11.39471671706596    0.34332712814017   -0.85239507516400
C        11.73396149773002   -0.75079157041521   -1.67230677388248
H        12.62489999190275   -1.18711415421303   -1.22428351242639
H        10.93681244065525   -1.50028409740575   -1.69274379364548
H        11.96397118216409   -0.43222310897618   -2.69364084356657
C         9.48422284284699    0.86944073550870   -2.26171396883583
H         9.68251776045144    0.04643561484860   -2.92658135946855
C         8.40572416155704    1.71619680041727   -2.50521295106286
O         7.56205157852873    1.57250889408842   -3.55279898407717
C         7.74981913281019    0.51164646863487   -4.45606767759491
H         6.94304976547255    0.60258209510740   -5.18197771430946
H         8.71145369055893    0.58555842792543   -4.97428561955992
H         7.67538041906160   -0.46207648867098   -3.96087680419043
C         5.54827817786183    3.21082865708988   -2.88362759720840
C         4.69534825105432    2.27480835966153   -2.28065434081535
O         4.95119695194747    2.02916495425023   -0.96420415085237
C         4.13312855806060    1.10187608282906   -0.28207315126043
H         4.43768598580780    1.14430259829051    0.76199943973410
H         3.07483950684961    1.36821876192781   -0.34675742671055
H         4.27645778449315    0.08991579974207   -0.67398018010700
C         3.68264081815887    1.67245831323046   -3.00281824867511
H         3.02178545445379    0.93384031551079   -2.58226467055717
C         3.49710983112969    2.01091345400730   -4.34363444812776
O         2.47682367734156    1.36479912890275   -4.96251987169769
C         2.21211039801197    1.64074920405638   -6.31842204937932
H         1.36278576879792    1.01402476556098   -6.58444521280883
H         1.94629951269169    2.69146806197249   -6.47010273081186
H         3.06359567351845    1.38216025628030   -6.95539041541866
C         4.32369651771654    2.94624251036448   -4.95221158986427
H         4.17936961755013    3.20115747096949   -5.98796837143311
C         5.35123136183009    3.54323534740307   -4.22607503317995
O         6.20835205259978    4.45022773160124   -4.74863686396172
C         6.06735871223796    4.84861928871457   -6.08952342636432
H         6.84680443917535    5.59117678635926   -6.25460103469610
H         6.21499581326744    4.01109195315232   -6.77908732732644
H         5.09161667725375    5.30873486136245   -6.27654148252889
C         7.38478765779463    5.44348213700343   -2.55443890389963
C         6.59657530623757    6.58420781479123   -2.34487090760546
O         5.46186402307828    6.37378138381979   -1.61800865800210
C         4.60954218038995    7.47129188694368   -1.36822614541164
H         3.84095759422756    7.10615322347321   -0.68896277949646
H         5.14055507120598    8.29593327796900   -0.88570543472017
H         4.15067788333195    7.83103868040260   -2.29471555470901
C         6.97860211421835    7.81064253530032   -2.85454698516850
H         6.39092026151992    8.70454875873264   -2.73441760482047
C         8.16992468128404    7.91773319769865   -3.57288661986540
O         8.45469364720518    9.16319209014130   -4.02982491086312
C         9.63736056257320    9.36957283798774   -4.76694328454856
H         9.64471554125909   10.42856638195912   -5.01844714270603
H        10.52651997736384    9.13372350337928   -4.17422309664332
H         9.64488268807765    8.78070438034317   -5.68928614091618
C         8.96841516275364    6.80029444391522   -3.77894784833948
H         9.88390703837244    6.88675149602894   -4.33842217691801
C         8.57516200378903    5.56289162989723   -3.27588373801024
O         9.28286895584081    4.42358104691147   -3.45043196007525
C        10.49612389896799    4.46036002157102   -4.15965383941530
H        10.87418160235345    3.43914339327253   -4.14092521657352
H        10.34889541675485    4.77151927667887   -5.19900678450522
H        11.22738195114058    5.11948785347894   -3.68054907380343
P         4.84323126441636    4.72285281088618    2.58133158140796
C         5.95141278180316    4.21350348446231    3.92206521525105
C         6.68500357166116    3.04984150748337    3.64833327885063
O         6.40556616861581    2.46276395418624    2.44974400585945
C         7.11011424705493    1.29186103848112    2.09351198093504
H         6.82162996967447    1.06818150174464    1.06795328178497
H         8.19226392731190    1.44290440988217    2.12631581891999
H         6.84163406032625    0.45758925910269    2.74942408270752
C         7.61275453166359    2.56920392805831    4.55284897582845
H         8.17865508986846    1.66807279864680    4.38939315160002
O         8.76390540549729    2.70584635748661    6.56427126502101
C         7.83347909097842    3.25852605315677    5.74565082234850
C         9.05518839386172    3.33126822896513    7.79259063595176
H         9.81820225910307    2.71317207622731    8.26226342267694
H         9.44982022697945    4.34131221521625    7.64546218717491
H         8.17540656843313    3.37240706646591    8.44204917234287
C         7.12557542743435    4.41977655898827    6.02630879695702
H         7.29608990192860    4.94576151315920    6.94979924015819
C         6.18191511119787    4.89549493956722    5.11939265770908
O         5.43929402737423    6.00718261095890    5.32589845787489
C         5.61911226388351    6.75534843249083    6.50244061501881
H         4.93424313197021    7.59791052635482    6.41760945655504
H         5.36710955683061    6.17397292784721    7.39532817036299
H         6.64207866970586    7.13550661867607    6.59028737355654
C         3.31527465297288    3.76776539255332    2.77552339954603
C         2.50884636830157    3.73636228648224    1.62859939642850
O         2.97254168277296    4.47247724092496    0.57882885986115
C         2.22321461346137    4.48256574291931   -0.61814995519852
H         2.82009444823885    5.03596100546626   -1.34080206988891
H         2.05876728378384    3.47259349323359   -1.00314141488410
H         1.25774901585018    4.97738429372876   -0.47263684509397
C         1.34015929097007    2.99874424874279    1.60595863921210
H         0.68391472383298    2.96645843462446    0.75306288865783
C         0.96563705961958    2.26597182411622    2.73257454588417
O        -0.19626124823648    1.57614253394459    2.60816111524212
C        -0.65835953021758    0.80928708602799    3.69578332014089
H        -1.59060074920091    0.35807842436726    3.36093480117349
H         0.05047700977499    0.01842941635183    3.95974622845941
H        -0.85524772677817    1.43297201785884    4.57315311128196
C         1.75930338239390    2.27609928962015    3.87221647182696
H         1.46373102443411    1.71305949847649    4.74070711859532
C         2.93051278448229    3.02897263399667    3.89704596993808
O         3.74908658650278    3.10591961072722    4.97127356459510
C         3.43419234617526    2.38849557916864    6.13859119330255
H         4.24526126026627    2.59762227892240    6.83471107732607
H         2.48765515919786    2.72185295437922    6.57661823917293
H         3.39225898249632    1.30995718311009    5.95436104166199
C         4.41392971185808    6.45582711392325    2.89056095171697
C         5.34371559035930    7.37719537411622    2.38759571786154
O         6.43719155872671    6.82318417039115    1.78950809436079
C         7.42307181457749    7.68436200840575    1.26072697007803
H         8.13197522389267    7.04439700047255    0.73796991423915
H         6.99997987498124    8.39516919743248    0.54614636768940
H         7.93247351794161    8.23456296895411    2.05824648702710
C         5.12836785894720    8.73672792729543    2.50992241786952
H         5.82800365473022    9.47565331229281    2.15869872729361
C         3.96496193094462    9.19743644625803    3.12712467589980
O         3.85063196303857   10.54751369232453    3.19959712448380
C         2.71197880429991   11.10815626271745    3.81084713449810
H         2.84836573727925   12.18641274525078    3.75051762068585
H         1.79456707856257   10.83076844392843    3.28266138287273
H         2.63317403456761   10.81369932171231    4.86188751942149
C         3.02608149232148    8.29845490176800    3.61614938003324
H         2.13166015870723    8.65917801044755    4.09425935749611
C         3.25103405574849    6.92886054872133    3.50347019127274
O         2.39888234251069    5.98827967694502    3.97102120973218
C         1.20438252761282    6.38315592488141    4.59859899513898
H         0.69445225166209    5.45718778756061    4.86067395697467
H         1.39638429190553    6.95959537581397    5.50944555244082
H         0.56454537167539    6.96397199654880    3.92624483569889

