83
CSD_code = WODBIC | q = 0 | S = 0 | Stoichiometry = C33H46BP2Rh | MND = 6
Rh        7.98911052202981    8.12121385853019    9.26401331515352
P         5.79163442834945    7.51560613530762    9.17156706351234
P         7.57450867793520    8.75446670968432   11.41603962441507
B         4.69633933491819    8.16135315200915   11.85860842278085
C         8.69138066479302    7.13259062930347    7.47843224001707
H         8.12140770905860    6.29174764852062    7.10874994695217
C         8.47839619660687    8.46769477008589    7.19497059999530
H         7.69478918799137    8.88766709055513    6.57772038993557
C         9.80221459906994    9.18263448432827    7.46634849996920
H         9.91984884337554   10.17238990747033    7.03258595347365
C         9.90220485737659    9.08283952849661    8.98896760321941
H        10.13905178531886    9.92699262012522    9.62127656321240
C        10.11102873668858    7.74783915042993    9.27552932499819
H        10.52238084756314    7.33154367499692   10.18596906131800
C        10.14724147307594    7.01896850640676    7.93216723655557
H        10.58400876771459    6.02358816853707    7.92897498887510
C        10.80204099789447    8.09233174653367    7.04703633457221
H        10.75927210585823    7.85626986767716    5.98331400315963
H        11.82927529426799    8.31833708256674    7.33473754030262
C         4.31434702143458    8.63303558251448    7.00511353742998
H         3.89505077263767    8.48636243424403    6.01050832412429
H         5.04749857928007    9.43766001466519    6.95434712521812
H         3.51182342260702    8.94434070276638    7.66907322855439
C         4.96350347611037    7.35130168846174    7.50400775543031
H         5.73581211040070    7.04423306342502    6.78615823693409
C         3.99596070415344    6.18660515100490    7.70632094516704
H         3.16959870519901    6.49702202555115    8.34841195535246
H         3.57883472754809    5.84477334057842    6.75670413777212
C         4.79022264319278    5.08359626268009    8.39779471787346
H         5.50176203089013    4.65611751347138    7.68577997926600
H         4.13582944479075    4.28086028168906    8.73901601747249
C         5.54731932471120    5.70937482038757    9.57653516528260
H         4.91927149611402    5.69256058436876   10.47306159250748
C         6.86915179128675    5.00363389090001    9.87329354543774
H         6.69399883097431    4.04002658709174   10.34921456066530
H         7.48497412376428    5.61350010715740   10.54069705111233
H         7.43095954409407    4.83045492048969    8.95608720642100
C         4.61090892549626    8.40335650475098   10.21238786757938
H         4.78767136821444    9.45697374784865    9.97295077682854
H         3.60987666340608    8.15115389298726    9.85382592384290
C         3.73695100811108    6.91062272102875   12.25965669114665
C         2.38858426767445    6.95351676184880   11.89736634897622
H         2.01564891409208    7.82166868063470   11.36954164369476
C         1.50417193274333    5.93756950515336   12.20549449085222
H         0.46759103671423    6.01085747391388   11.90252065131732
C         1.94013920912785    4.82721393314450   12.90860228744707
H         1.25489703265664    4.02679485137247   13.15216815299735
C         3.26246172919394    4.76558428261739   13.30733219707834
H         3.61618634864879    3.91262428958181   13.87274566365061
C         4.13629497243770    5.79193366705110   12.98917377893406
H         5.15958985350440    5.70619796437662   13.32946504192909
C         4.10659163274482    9.43604279490900   12.67912849698055
C         3.50618146761887   10.55480975221805   12.10374180999175
H         3.40998574714401   10.62298958274111   11.02840467106728
C         3.01404140616328   11.60326541996772   12.86314322945118
H         2.55888243417040   12.45542179401289   12.37419853901487
C         3.09944967079265   11.56502266804046   14.24247664376138
H         2.72024694373172   12.38322716319039   14.83934573949920
C         3.66510278252188   10.45537110619545   14.84737355089353
H         3.72214527690585   10.40042059757559   15.92693051644025
C         4.14959315040700    9.41696260499895   14.07521096983707
H         4.56244936294384    8.55009141496105   14.57468256244725
C         6.27232141544970    7.89666551480065   12.32922408014559
H         6.52844443215054    6.83753236733660   12.22345015256867
H         6.39143536639386    8.15689739302767   13.38385906018510
C         7.18361180648219   11.26156514245181   10.18096261180862
H         6.69559237808957   12.23369816652168   10.23153745209175
H         6.66790458620380   10.65293647616645    9.43241091999223
H         8.20900090891467   11.41518221694378    9.84646976992381
C         7.15304136995235   10.56889011954570   11.54202432816979
H         6.13510085543388   10.60575562263798   11.94309453539337
C         8.13250714182353   11.18844666339333   12.54752568940839
H         8.99745773420077   11.59761558061166   12.01797121449919
H         7.66068035882334   12.00369799986849   13.09688446016768
C         8.60214310779217   10.08651651640567   13.49145108320278
H         7.78041065807756    9.79570852547129   14.14844697470185
H         9.43399894658189   10.42090005956542   14.11499008945482
C         9.00521205737938    8.90663101853344   12.60893473757693
H         9.88832325663121    9.19364878472836   12.02261961119696
C         9.31736639987939    7.62626690442798   13.36810018652874
H        10.19241042352313    7.76203403421458   14.00249926351838
H         9.51856337389440    6.81046355541801   12.67412036096629
H         8.48147650608097    7.33762045983889   14.00042137835429

