37
CSD_code = WODCIB | q = 0 | S = 0 | Stoichiometry = C10H20N2O4Pt | MND = 4
Pt        2.41445050675481    0.28542526337733    3.30857398486759
O         2.90228643939388    1.69775595512549    4.65571282825395
O         3.01096095653394   -1.23408618790381    4.48145680785720
O         4.15711258076101    2.20887733050284    6.38672373320326
O         4.33837528941483   -1.86594545704834    6.11600605142350
N         1.74864343296402   -1.28691783331744    2.05684462876723
H         1.33469490557904   -1.89759893767806    2.76539322108898
H         1.02504034182539   -1.04330095978099    1.37965345385542
N         1.65344022659161    1.96545109547849    2.27257053721659
H         0.63452761021042    1.92684186495826    2.20360272528086
H         1.86968831591470    2.65767209861030    3.00032420429142
C         3.89681863176935    1.47772783191979    5.45681217921584
C         3.99797146646172   -1.04044892867693    5.29677022810914
C         4.78214994888603    0.26920909075166    5.11176244295431
C         6.16750570430620    0.30406230621532    5.76747029184559
H         6.43494766799889   -0.65176528769979    6.21244447884632
H         6.27273823039213    1.09457416118935    6.50695647522827
C         6.80599781833948    0.58094043812003    4.39821986911849
H         7.20067218901131    1.59048929331424    4.30198612170625
H         7.57023471857446   -0.12974065213830    4.08928242934164
C         5.44163973441576    0.39516067268048    3.71352712834974
H         5.37837962128818   -0.52083967011035    3.12350357999039
H         5.10442615933435    1.24658034025290    3.11383909497851
C         2.83129161037744   -2.02159167024655    1.38181693801220
H         2.42961986926971   -2.88982991801226    0.84490861744749
H         3.51458726286722   -2.37724528659048    2.15592565307342
C         3.56689373069923   -1.10356703289384    0.41848216387206
H         4.41922546603698   -1.61833643708275   -0.01429927298801
H         3.92422691242779   -0.22689142468632    0.95867588058487
H         2.91272532590575   -0.78260070821031   -0.38989505478724
C         2.21243793491734    2.43373255378497    0.99786774489337
H         1.97408277341963    1.70501445378449    0.21848640909865
H         3.29851343034196    2.48492627559645    1.10099249414983
C         1.66937537511361    3.80515147616891    0.61094426372427
H         2.10647714550370    4.13046487536255   -0.32855686029215
H         1.91442303470512    4.54002719516118    1.37423401206366
H         0.58791763169282    3.77432181971792    0.49248051535743

