113
CSD_code = WODHII | q = 0 | S = 0 | Stoichiometry = C56H49ClN2P3RhSi | MND = 6
Cl       13.07545771812129    0.76318323090073    5.33690164765626
N        15.91611394525328    1.21849438951757    3.76922618244335
N        14.12854103656230    0.25523217813851    2.23506065680560
P        14.86079873317043    3.17862844818311    5.37388564011587
P        11.81471371398115    1.62647657178586    2.49880890399446
P        11.32785710757325    3.91993927849111    5.32871439247581
Rh       12.98609639141314    2.79963038428193    4.08378652132254
Si       14.64649315014909    1.86259979600970    2.73977915120660
C        16.19536603288887    1.89849517877746    4.99161578498871
C        12.71485813659182    0.03895880435452    2.14145104476400
C        15.91379011925843   -0.16786757202305    3.70574438741837
C        16.76564333020103   -1.01355810419958    4.39101279888613
C        16.63441129251648   -2.38716324060760    4.23539078223009
C        15.65778639227054   -2.91057934052557    3.41030220760679
C        14.79487441011449   -2.06934544379205    2.72009369168306
C        14.92670282283890   -0.70181617946896    2.85818355353887
C        15.48616142226937    2.71010099048692    1.24297916162544
C        14.98246227893683    3.86225177516070    0.65657815951871
C        15.59831118201485    4.42664111314969   -0.44614470890830
C        16.73355925948853    3.84007641344942   -0.97879650107781
C        17.24820309292605    2.69051315944787   -0.40233686775171
C        16.62692235524293    2.13240428448977    0.70042885778291
C        15.90245904636529    4.66645007941904    5.16712558894576
C        16.81033891365649    5.06446711551594    6.14409433470646
C        17.63635315687913    6.15089894061192    5.92253994891877
C        17.57906440457002    6.83822337274769    4.72059643933809
C        16.69929144280552    6.42759682401450    3.73336043861062
C        15.86609258333901    5.34614800661614    3.95633557042385
C        14.64755513432950    3.11107180317398    7.18367144430198
C        14.32608689465874    4.28980088247962    7.85534937501376
C        14.01869729684100    4.26790500493816    9.20201106951639
C        14.02567864073450    3.06963686837121    9.89742107933991
C        14.34743012151017    1.89544267118223    9.23871672141220
C        14.65159007822007    1.91072931041313    7.88860426475042
C        11.72560444343166    2.42742976097936    0.87306445112014
C        10.82911422304556    3.48425073036506    0.73205193101637
C        10.76419387672285    4.19191922236280   -0.45214650943401
C        11.60313726128806    3.85742047579607   -1.50422384563442
C        12.50792005596177    2.81910340354576   -1.36320441549602
C        12.57617748907136    2.10667257468094   -0.17808379243802
C        10.13718324611752    0.95888571610597    2.74216624354447
C         9.80730749312779    0.52120327960545    4.02265175676796
C         8.56673490979107   -0.03694043779243    4.26903593411757
C         7.64671517480614   -0.15724325327769    3.23945812194041
C         7.97400433589436    0.27244073257758    1.96372926234970
C         9.21619311046478    0.82678128122523    1.70941323550699
C         9.97869051190586    4.53898090159678    4.25839313180665
C        10.06902085189567    5.76555966777742    3.60914376131248
C         9.07837926056396    6.16498731784969    2.72931103936062
C         7.99156462620698    5.34368551150619    2.47875954842697
C         7.89771814555738    4.11696794182416    3.11638887951939
C         8.88414665702160    3.71675705858982    3.99847674300272
C        11.88946422470138    5.49478523791786    6.08508708981131
C        11.42936928585567    5.95318894955066    7.31444464593591
C        11.90624033294981    7.14256564221626    7.83813994447460
C        12.84506282411385    7.88965180368761    7.14730410340282
C        13.30838985986313    7.44145517711245    5.92108413782842
C        12.83442020634627    6.25304669577151    5.39773401769797
C        10.38824528738229    3.21536842363259    6.73055023786212
C        11.02744799398847    2.27888243012359    7.53472263408359
C        10.38869912204674    1.75461656526551    8.64451560634141
C         9.10528297478250    2.16247490845446    8.96257633863097
C         8.46630338971889    3.10562478335544    8.17237422945300
C         9.10243987543745    3.63637714709444    7.06592018956359
H        13.00050374010135    4.04492691110979    3.22491374319013
H        16.26117328709769    1.18760866758632    5.82307904338184
H        17.14566552439835    2.45296636519436    4.93357259675396
H        12.38175144004898   -0.69061093710993    2.89625125089160
H        12.39183280194110   -0.32906453193285    1.15460271006587
H        17.52406520924006   -0.60993014011944    5.04712098663959
H        17.30063976980611   -3.04762999841229    4.77112595494114
H        15.55754143854886   -3.98056370648893    3.30166493977627
H        14.02112371227313   -2.47863553550728    2.08641801582226
H        14.08956718223000    4.31816601305395    1.06188731026596
H        15.18965896446091    5.32182516509524   -0.89344092698039
H        17.21600354044347    4.27660443378716   -1.84179645025501
H        18.13380571471192    2.22905804114317   -0.81579421300283
H        17.02342252598798    1.23513462439279    1.15178347269546
H        16.86843931037281    4.52467479390904    7.07932973914259
H        18.33200223265790    6.46003965935912    6.68928853484849
H        18.22604309086967    7.68676420205284    4.55285721896156
H        16.66287848123596    6.94759141952776    2.78716465933636
H        15.18358931914026    5.01569903941510    3.18577437524300
H        14.32684088285967    5.22702397568907    7.31764769335932
H        13.76907477184230    5.18975761242687    9.70705531470066
H        13.77991251056571    3.05192454754984   10.94908539906186
H        14.35334926167617    0.95756213912379    9.77484452106752
H        14.86109528277626    0.97955905333538    7.38374209312167
H        10.18691405304875    3.74185298789658    1.56260298427669
H        10.06250435980652    5.00729088604551   -0.55280726963525
H        11.55572469021744    4.41096674415458   -2.43055517477524
H        13.17319865242371    2.56628152480895   -2.17562521019555
H        13.30358286426685    1.31620620092778   -0.07105968627761
H        10.52789062452715    0.62644000688012    4.82414574835954
H         8.31566853616225   -0.37161387398012    5.26521882007976
H         6.67434128189914   -0.58734133264035    3.43074609485184
H         7.25782081925452    0.17418661865400    1.16049971642572
H         9.46815119590520    1.16088486986039    0.71282817377225
H        10.91433781437109    6.41245650692468    3.79290053776430
H         9.15718947387733    7.12264510632693    2.23508776779216
H         7.22160878710264    5.65645722781612    1.78887474996561
H         7.05723730887266    3.46557912631424    2.92472942019658
H         8.80487995145670    2.75986920289699    4.49385522327254
H        10.70650921288876    5.38080237054886    7.87562717057886
H        11.54280707182524    7.48523800545157    8.79634023580767
H        13.21891074424102    8.81301869635875    7.56481832903062
H        14.04960633677555    8.00916252792873    5.37691470017215
H        13.21681335486206    5.89306377177620    4.45298793165140
H        12.02304665810207    1.94804989169744    7.28158654558797
H        10.89646191432571    1.02492629198569    9.25775857382539
H         8.60149599059374    1.75167979965444    9.82556055074280
H         7.46789159157149    3.43469083317642    8.42351783985088
H         8.60129402851613    4.38368754930950    6.46653786843655

