48
CSD_code = WODLEH | q = 0 | S = 0 | Stoichiometry = C19H24Br2N2Pd | MND = 4
Pd        0.90341670980986   -0.55414624349888    2.13149778934737
Br        3.27432564425735   -0.68491144939885    2.09210219447456
Br        0.84474843198692   -2.22731399187254    0.46329221480999
N         0.75359697364669    0.82108560151565    3.58250885727271
N        -1.14813513771517   -0.30824978556279    2.21737065392221
C         1.89649975909842    1.28534391256345    4.25822359589694
C         2.69543749561430    2.25188133409657    3.63322816866253
C         3.83523044204140    2.68240964993454    4.29441291178773
H         4.46106769673733    3.43582106923034    3.84582291485657
C         4.19022104935226    2.13987337770072    5.51393877221640
H         5.08704908757446    2.47659338819447    6.01111896818440
C         3.41793585055150    1.14910460598836    6.09238368265486
H         3.73445319121204    0.71690642294302    7.02686218071818
C         2.25245940491259    0.70656698613966    5.48659783884573
C         1.41458441391598   -0.41369968479083    6.07120154331161
H         0.35380118015603   -0.17937328162141    5.91557796434494
C         1.72338685333316   -1.73122009788592    5.34480494291609
H         1.37174282016689   -1.71309080177425    4.29695487005631
H         1.22508924255116   -2.55927335817082    5.84475754964875
H         2.79536755263593   -1.91597022677341    5.33910533937442
C         1.62021659993214   -0.59514175010737    7.57463858127947
H         0.87282329430084   -1.28376514458405    7.96347953891367
H         1.51822602177487    0.35281007642916    8.09880209873056
H         2.60028791197580   -1.01383989258480    7.78610811724775
C         2.30918684997055    2.79589075293186    2.27465587376433
H         1.68699781121154    2.03700798755572    1.75637665727828
C         1.47707201130205    4.07201683181616    2.43017368760248
H         1.20941048787672    4.46654795299816    1.45238275534395
H         2.05022424378630    4.82849680587093    2.96261425571596
H         0.56121579989074    3.88198349496949    2.98626092921399
C         3.52546767755892    3.05587601995774    1.38685237309232
H         3.19799005656115    3.25749075931222    0.36934204660510
H         4.17271728308247    2.18279234105657    1.37448455874282
H         4.09321833239764    3.91561210045362    1.73296374555944
C        -0.44048647469615    1.20231659159282    3.89805396905207
C        -0.73089736477588    2.21000189216368    4.96988682975968
H         0.19689642586040    2.58620829035211    5.39564310726838
H        -1.32491123301260    1.76072526776019    5.76557603695639
H        -1.29625463073784    3.04570228412502    4.55832408318666
C        -1.52507407318933    0.60215782863686    3.14589079415812
C        -2.87294387874493    0.91369772014718    3.34690273875665
H        -3.15175649946798    1.63865046097553    4.09388678040701
C        -3.83560584309571    0.28561462826271    2.58367650979504
H        -4.88093608667752    0.51329543090985    2.72439608308795
C        -3.43134960913909   -0.64435903091595    1.63279180090888
H        -4.14787801668491   -1.15898708860731    1.01427747294091
C        -2.08218805142329   -0.90939124529567    1.48557868153105
H        -1.73724770767679   -1.63214879314290    0.75581693980243

