103
CSD_code = WODNEK | q = 0 | S = 0 | Stoichiometry = C46H45F3N3O3PSZr | MND = 5
Zr       10.64956426971715   12.25799751596886    4.67774342685943
S         9.88790249887033   14.88481564327676    4.23829366504900
P        10.90821768173853    9.35915279325911    4.94841343386041
F        12.06103227700254   14.44900095315805    5.45234217309892
F        11.15142342514178   16.24894896220994    6.25366688721131
F        12.22941775193677   16.32889848345631    4.38403104482974
O        10.59145055385528   14.02761797990995    3.30014880940707
O         9.39249329037877   14.06428318377656    5.32686683193930
O         9.07796874778050   15.93028345421734    3.73363692051271
N        12.26842671285510   11.68607789284689    5.88043504475286
N         8.93888642602818   11.31634899974873    5.40781144502417
N        11.00110012794444   11.27242872856040    2.87530479209439
C        12.14219885610512    8.71857166099269    6.14472587842300
C         9.42045285058734    8.39874701405970    5.44203207253845
C        11.40628101712457    8.41654008516362    3.45180040298450
C        12.00009687159806    7.56182401753921    6.90053245012840
H        11.08931347440087    6.98428970593709    6.83243607084770
C        13.02454974033719    7.14460715433996    7.73413960033902
H        12.90846245569949    6.24544237260674    8.32111450236352
C        14.19991272555986    7.87130543371921    7.80056314103988
H        15.00905069309022    7.53576369636659    8.43224634308665
C        14.33706976151607    9.03826010693284    7.06532856539241
H        15.26037744980991    9.59772529735137    7.12497226405346
C        13.30722780881845    9.48692001493455    6.25401870094522
C        13.37324320370094   10.80285368512469    5.50487521668558
H        14.34937884556453   11.28277187069211    5.67611406429145
H        13.28795092475360   10.59041552872191    4.42703790170697
C         9.13702625006777    7.10143586316140    5.03460671983050
H         9.81180325819964    6.58828728733218    4.36446453898473
C         7.99356944302910    6.46348257372230    5.48754862985467
H         7.77794009075398    5.45490242436246    5.16686444457479
C         7.13559126571640    7.11466649216625    6.35561993646113
H         6.25072176727822    6.61397672390757    6.71968858510391
C         7.40503468744276    8.41545817767196    6.75217031067690
H         6.72901946766428    8.91581586938318    7.43138980355968
C         8.53317448310095    9.07246835589017    6.28973251672494
C         8.83632383048672   10.51888202627415    6.62479255860262
H         8.08079534153620   10.92026544601481    7.31629824930782
H         9.81266330294786   10.55214217333861    7.13817334624033
C        12.19716318743083    7.27479311492745    3.45510696256174
H        12.59111029141057    6.89511949761473    4.38701942747387
C        12.47996929828539    6.62030281381290    2.26705276480138
H        13.09712914300126    5.73394427392463    2.27568019548927
C        11.96384549827526    7.09611484655876    1.07515224145084
H        12.17124813352470    6.57862649037422    0.15026340996323
C        11.18860480351521    8.24535758443134    1.06421876452067
H        10.79141454660066    8.61026086805746    0.12745945936960
C        10.91809093001205    8.92302820654447    2.24139042613444
C        10.16394264896664   10.23644055403981    2.27896854614614
H         9.81961441060631   10.50907271165227    1.26983437032650
H         9.27297800182490   10.10803394286257    2.91743273300784
C        12.24544049364401   12.14818023964181    7.17297076881681
C        13.28822161702869   12.04501047291653    8.10652065718750
H        14.21199532120634   11.55769180862637    7.84383395956815
C        13.17265017627573   12.57501444791102    9.38329691087882
C        12.01197692450493   13.23137045671291    9.76123907798998
H        11.92363337520671   13.64910387510698   10.75306843394619
C        10.95421408809725   13.35471928137304    8.86340662520352
C        11.07035159026470   12.80868633106220    7.60023974004320
H        10.23694100991235   12.88782165929805    6.89905014786208
C        14.32355033507530   12.43923127042170   10.33748285926095
H        14.63563401424251   11.39860954270817   10.41088276404840
H        14.05143770687945   12.79334139748757   11.32834152718471
H        15.17652439349800   13.01975368924760    9.98678813603289
C         9.69319286537198   14.06186833047558    9.26524055908357
H         9.17758570370490   13.50251497298858   10.04586111838388
H         9.02591761065272   14.17169937375425    8.41266669817753
H         9.92188610338189   15.05006518174311    9.66094077693233
C         7.79154007911155   11.66800733313299    4.75144516103449
C         7.92730319479215   12.35123710842794    3.52151021284713
H         8.92768107516839   12.51882255919165    3.11643148885062
C         6.83080851597537   12.82778155593239    2.82307873753438
C         5.55319402232347   12.58229497604853    3.30871004602636
H         4.69012005287338   12.94441330223816    2.77017952209170
C         5.37888767467315   11.86435892806757    4.48679982709175
C         6.47934146701383   11.41686830754509    5.19496478115478
H         6.31205963798208   10.87188593401001    6.10978371192786
C         7.05036528535630   13.62070219642316    1.56783518974863
H         7.42960403761036   14.61069871268831    1.82591846171266
H         6.12362426411319   13.73715690992542    1.01099592453389
H         7.78980029925242   13.13854067064416    0.93003629075182
C         3.99009361515981   11.58651916882665    4.98409641471420
H         3.44861759990269   12.51908371953760    5.13684223632288
H         4.01108775756068   11.03866491608959    5.92273069151371
H         3.43803974005381   10.99818079938570    4.25206650782545
C        12.04866633085676   11.76706756349957    2.14740431083533
C        12.95073857234533   12.62735064357689    2.81473406958933
H        12.78255337779854   12.82367707495573    3.87786398740664
C        14.01907638851907   13.21626381850891    2.16648584573849
C        14.24048786768280   12.93578489502553    0.82176842396729
H        15.07624994641779   13.38787677533669    0.30862216978308
C        13.39310976495018   12.07341009099417    0.14057280057556
C        12.31615489658679   11.49706907248820    0.79463275429801
H        11.67476548104244   10.83705821978597    0.23330255707579
C        14.91864813822301   14.16022508058888    2.91084605908480
H        14.91520252303354   13.93958011267301    3.97690659037382
H        14.57253847338448   15.18571531498959    2.77645799813906
H        15.93915073215116   14.09855230518415    2.53898171586658
C        13.65159405162428   11.74147027108216   -1.30052397972794
H        14.20915385497761   12.53745075319360   -1.78811802833469
H        12.71897646298640   11.58465837091389   -1.83785300493759
H        14.23819568760850   10.82474721635349   -1.37073817819127
C        11.39519127829229   15.60567243834743    5.12003735155158

