75
CSD_code = WODQOV | q = 1 | S = 0 | Stoichiometry = C30H40N3OPt(1+) | MND = 4
Pt        0.84573377840623    1.21962123807294    1.41602342178223
O         1.41431712094762    1.29635094057602    4.29965735786639
N         2.56288442305316    0.19433938677660    1.82414225087304
N         1.99854926983740    1.96755032032157    0.03849901710528
N        -0.49289904451149    2.42200251281186    0.49494492454112
C        -0.32821480253961    0.43426050673844    2.92628483464766
C         0.29024258140080    1.43068520750825    3.82444658355752
C        -0.51121980052661    2.69129412333971    4.11740575638963
C         2.82520195921991   -0.66502950690150    2.80243376704377
C         4.08352790982160   -1.18969149024188    3.02824776506557
C         5.15702006963346   -0.82990135091472    2.21522951692595
C         4.86969147289749    0.06578483831670    1.18815433774157
C         3.58569602184624    0.56086196136360    1.00984701023582
C         3.24752788493658    1.51502703355458   -0.05848992144344
C         4.05944900105565    1.95291643850699   -1.09964918761232
C         3.55912541359032    2.85931650548777   -2.03484272829127
C         2.23236162446489    3.28134933913187   -1.89896865920244
C         1.46145209587399    2.81098058742626   -0.84521053100799
C         0.04742932290357    3.09739643232558   -0.55761258463982
C        -0.71082767146426    3.97942663167556   -1.31080614179630
C        -2.05848949571553    4.20383227415908   -1.03063170830420
C        -2.58400045072176    3.48859469323902    0.04301594443278
C        -1.78005453143207    2.62497949251031    0.76363082778820
C         6.53797057455365   -1.39276421010568    2.46596224750477
C         6.98081922040839   -0.97932913896286    3.87744462913120
C         6.46927665829626   -2.92401821909925    2.36691284578184
C         7.57234885132099   -0.88412251611880    1.45922567553251
C         4.39316136377807    3.38747076434529   -3.18554287685931
C         5.81866729468812    2.83088529838232   -3.18277482344061
C         3.71962235377895    2.98996330362650   -4.50768396625415
C         4.47050968973800    4.91773822168900   -3.07473888829773
C        -2.86407636535235    5.17085057454208   -1.86877703503840
C        -2.22993597130364    6.56533803246737   -1.75377027728157
C        -2.83374116079063    4.69997802880433   -3.33077094247981
C        -4.32232373060508    5.25703796144633   -1.41449073735952
H        -1.41210168604047    0.52760619645047    2.86467601444552
H        -0.06267315085795   -0.59081214912124    3.19123197136597
H        -0.03315921956371    3.23398521348319    4.92882581117561
H        -0.53716955518017    3.33640865201008    3.23795130052519
H        -1.53079757989504    2.44229209906528    4.39843875061772
H         2.00690727710680   -0.93236114595947    3.45247039911580
H         4.21250892559063   -1.87567356082960    3.84844231444738
H         5.64712870122603    0.39781460446302    0.52252293233358
H         5.06650757354971    1.58582829646080   -1.18183589100941
H         1.80890463843163    3.96494895200225   -2.61452848020543
H        -0.23802632504064    4.49746281409986   -2.12825157138675
H        -3.61531018939100    3.58964058435465    0.33274575927950
H        -2.19398497067180    2.07120276565566    1.59384199436481
H         7.97921804713858   -1.36085453057187    4.07328366244346
H         7.00324898344900    0.10444335004782    3.96756915316905
H         6.31240178845315   -1.37215438439820    4.63778200227771
H         5.79963316155322   -3.34430165550967    3.11135654511578
H         6.12329045212498   -3.22776870410892    1.38115534183986
H         7.45838659145574   -3.34432083626594    2.52691144779379
H         8.53953037018191   -1.32393584768087    1.68771014574134
H         7.31003465012992   -1.17185807076260    0.44334982849429
H         7.67992114682028    0.19684944843409    1.51528707942394
H         5.82188578634594    1.74904299477805   -3.29534083419385
H         6.36666642720590    3.25067702311891   -4.02214525953614
H         6.34845716158567    3.10446213077629   -2.27307267688636
H         2.72858248914175    3.42450128495715   -4.60423335303604
H         4.32178156167911    3.33818293904975   -5.34228769915186
H         3.62927560643599    1.90819939312676   -4.57890665693786
H         4.91764008430372    5.20868182596522   -2.12665300476530
H         5.08742665981323    5.31068549860200   -3.87811626183416
H         3.48978360355558    5.37939460692246   -3.14803515554568
H        -2.22645196468526    6.89757139130271   -0.71803913208685
H        -1.20763872153533    6.57591311902180   -2.12195306300032
H        -2.80661104013103    7.27648333347010   -2.33859731572538
H        -3.43956755047987    5.36532179136978   -3.93954431178121
H        -1.82529779563526    4.69932184355724   -3.73515663840083
H        -3.24002675462895    3.69450932868687   -3.41505964407835
H        -4.39679435302417    5.61419001156354   -0.39019548625860
H        -4.85435598788694    5.96034464081782   -2.04958377864602
H        -4.81865777413556    4.29319853479042   -1.49826394417639

