66
CSD_code = WODSIR | q = 0 | S = 0 | Stoichiometry = C26H28CrO11 | MND = 6
Cr        3.83888674988445    0.79027199304166    7.36711502157455
C         2.72060964138998   -0.53258539662028    6.66488683667579
O         2.05275521371593   -1.34018132555372    6.19165798240327
C         5.16510106940154   -0.31299996252694    6.63951123405846
O         5.79313359358993   -1.14145822192329    6.14475328507994
C         3.79163053320801    1.95999936508518    5.92043570844141
O         3.81175087428559    2.84223886688054    5.17557761510820
C         4.04416451249172   -0.01582306604346    9.05096331064480
O         4.21542361261574   -0.39711392105489   10.11863669064501
C         2.25410670930276    1.61061621091532    7.95915725402035
O         1.19604659288148    1.96483035084927    8.21026503101503
C         4.95225353512620    2.37335230707040    7.88311766713908
O         4.25012594554273    3.34396279993620    8.40503237337068
C         4.91353569243772    4.62786976349386    8.38201651377561
C         6.14340000847159    4.39174188150185    7.51787400582471
C         6.36169128918947    2.87725263384915    7.66442114141709
C         7.17739825735917    2.49885346108411    8.95805674483127
C         7.20322180873549    2.22897745686268    6.55442119632773
C         8.37573956195267    1.57210860426042    7.32193792522530
C         9.18540860535622    2.71100990129642    7.88654849746269
C         8.47121554643408    3.26363069504390    8.85953745941982
C         7.65787210742346    1.09369564199736    8.58722172401670
C         1.78902789952898    6.47271775144428    8.33337943629108
C         2.10389557048650    7.66097261022024    7.39065025161792
C         3.55752863285166    8.12724613233988    7.47326139092552
C         4.58501069561065    6.97915642320346    7.45038481103575
C         3.91568001587770    5.64219301527738    7.83134962046147
O         2.93230722842400    5.85308156497521    8.82824684892992
O         1.03277585703720    5.59858704337388    7.54538299212869
O         1.83498677357513    7.15392211112663    6.10768726606841
C         0.83785227137596    6.15433851990334    6.24971619697391
C        -0.56695554730779    6.76250229688686    6.15995102100658
C         1.03607049871459    5.08055218240439    5.18549921597927
O         3.77939637392102    8.77688011489461    8.69790609477232
O         5.56336585374204    7.38428216957562    8.37367812576599
C         5.02309895324708    8.36464271847477    9.25069618463629
C         5.99165679900850    9.54879280147489    9.30065800655382
C         4.78144476900125    7.78195267542651   10.64463715732252
H         5.16266072609090    4.90243254974841    9.41166301543475
H         6.99271523648889    4.98916269372877    7.83470452840395
H         5.91687480654723    4.62039095751386    6.47391452851462
H         6.61578878614046    2.60978293002079    9.88265195659380
H         7.56128878923418    2.97044631155744    5.84088534229595
H         6.62892766713467    1.47621189414615    6.01445357051445
H         8.92367015905327    0.83231595431743    6.74558382476459
H        10.13920881265716    3.02318378191536    7.50360484324046
H         8.71068568310620    4.12459621608229    9.45640121973823
H         8.34196741465966    0.68287991420247    9.32826448974156
H         6.84847822402175    0.39135123303472    8.39538669789050
H         1.22365048060558    6.76959809939458    9.22460027209037
H         1.45598713183615    8.51744193439334    7.62529988353759
H         3.73746789461569    8.82101978596511    6.63780567942475
H         5.06569117109599    6.88293892857604    6.47226567730971
H         3.44307529007280    5.21831640432817    6.93410978998871
H        -1.30419552742398    5.97820927928331    6.29891506637343
H        -0.69984487375993    7.22527742549076    5.18670074408262
H        -0.70229294022348    7.51289749177411    6.93461072814441
H         0.88019357806111    5.51323275063153    4.20260085974433
H         0.32508885300492    4.27858648477099    5.35640029916517
H         2.04270237139016    4.67573834060405    5.23782349154132
H         6.94759191027548    9.21724289006763    9.69310764518962
H         5.57990667698054   10.32604537990036    9.93606713325131
H         6.13597036946457    9.94415749027789    8.29885451048259
H         5.72281224754728    7.43656486368923   11.06160725975004
H         4.08345006224961    6.95192373051001   10.57206815122399
H         4.35646489317796    8.54938411366001   11.28381895260948

