82
CSD_code = WODVIV | q = 0 | S = 0 | Stoichiometry = C26H48BrCuN4S2 | MND = 3
Br        9.38642044528373    5.90266693546093    5.77912502196830
Cu        7.48110653205186    5.67590101027795    7.06515120651424
S         5.97825347921730    7.55915677906174    7.17751711639996
S         6.95346435355586    3.84221175112667    8.34392905706412
N         7.24943005999259    8.26021769955553    4.99298968420892
N         5.88649165138359    9.87301183665413    5.94549489116587
N         4.57856977271370    4.92800256604746    8.54153355376708
N         5.07350788587242    3.28198134341080   10.09546769173798
C         6.41325733837309    8.63863050883528    5.95030496215824
C         7.87549245948157    9.08377669235592    3.97540016931346
H         7.15037947866368    9.82151172845110    3.60429136613799
C         8.29284519427969    8.17520909680630    2.81996440973498
H         7.41117753979126    7.68092285742714    2.40771518020014
H         8.96697816822251    7.40968486356204    3.20695065220064
C         9.00432980338400    8.97993041088960    1.73738273464141
H         9.30626357898905    8.31186138919201    0.93005077753328
H         8.32103800579378    9.72434435837599    1.31866846061540
C        10.22772810009999    9.67922025065825    2.31999972364874
H        10.73355475642128   10.25637448221542    1.54393337510966
H        10.92303579378874    8.92740065725159    2.69547712153163
C         9.81602271706885   10.59672603575536    3.46623407254762
H        10.69568014839811   11.08223302579203    3.89137939234824
H         9.15142123694324   11.37919194156415    3.08827708784414
C         9.10391397997839    9.79597289157239    4.55069795538158
H         9.77833823929890    9.03523321856818    4.94763678533823
H         8.80434398822418   10.45043512693144    5.37346665138454
C         4.79761536559817   10.32325681003346    6.78558707875963
H         4.82734851093340    9.71716642186195    7.69614735325402
C         4.99472371711445   11.79437140625173    7.14307731229863
H         5.00762175946903   12.39062237848891    6.22657738136786
H         5.95501707902245   11.92407846335696    7.64564323377508
C         3.85880606096331   12.27175280562804    8.04345175444906
H         3.87767866635841   11.70629762203795    8.97755992964470
H         4.00191248678821   13.32578114999596    8.28758803140697
C         2.51077579468545   12.07326335356911    7.35665118535159
H         2.46935849635702   12.68727510904724    6.45411406286154
H         1.70637629532041   12.39850398278298    8.01878706568450
C         2.31256697034467   10.60737226943196    6.98358498501828
H         2.28752867181138   10.00347426449138    7.89238094272587
H         1.35824999388617   10.47761471931810    6.46984107847675
C         3.44797621182376   10.12176996398984    6.08881026576369
H         3.31781619080484    9.06365126841883    5.85241560585661
H         3.44144673790101   10.68197708734307    5.14999347234649
C         5.44174691381767    4.03437652212054    9.04957559942494
C         5.85657892581441    2.20624616742961   10.66597550412158
H         6.89430494507384    2.37617470027537   10.36498740789174
C         5.74888345088826    2.24562139755744   12.18935497743776
H         4.70289070509515    2.11613759947899   12.48226476223953
H         6.08646347649288    3.21715695540390   12.55603749026434
C         6.59090666780146    1.13047499038250   12.80226555069746
H         7.63984769383318    1.29102987660842   12.54604013739624
H         6.50254521605957    1.15831728400679   13.88999966086338
C         6.14302418305729   -0.22914402342437   12.27461889413393
H         5.11077419091713   -0.41598938174627   12.58096765669994
H         6.76592101978204   -1.01558745802551   12.70392026770552
C         6.23702870544537   -0.26736946403208   10.75223809945366
H         5.89478807966678   -1.23490053442318   10.38065503914695
H         7.27783231037805   -0.14026443319161   10.44893727105106
C         5.39751861381121    0.84627467457952   10.13431922352390
H         5.49528848128547    0.83306632665130    9.04742155110692
H         4.34344492897443    0.69634974784941   10.38509370627819
C         3.40596118271971    5.47093065820143    9.20104669842739
H         2.77161020047520    4.64060624762618    9.54206696510219
C         3.80311079062813    6.34509935127552   10.39651169739252
H         4.45969031134466    7.13863105443658   10.03316883302034
H         4.36431410948357    5.75375656809302   11.12355613569991
C         2.56525769168294    6.95121056181796   11.04865260589398
H         1.92518423953241    6.15223273828279   11.43182210563174
H         2.86293659924092    7.57426805024829   11.89367089391323
C         1.78856269845387    7.78237757603231   10.03342358366288
H         0.89783852348602    8.20743132204379   10.49968875910340
H         2.41886939843540    8.60760607414299    9.69568959837443
C         1.39095754175317    6.92517421487167    8.83570353869927
H         0.86071504489495    7.53309734363065    8.10071322133435
H         0.71321121972052    6.13399593364293    9.16560760190110
C         2.62411752342394    6.30348242391360    8.18718022837113
H         2.33172756935450    5.67356513335874    7.34496712906674
H         3.27916150299304    7.09195423843110    7.81121539919755
H         7.76917802387131    7.39147227828704    5.16138830589690
H         6.11229264988045   10.46926279497677    5.16272172211819
H         4.11613246785973    3.34336829220280   10.40916501414092
H         4.98221848614438    5.53916766313479    7.83611732405555

