82
CSD_code = WODVER | q = 0 | S = 0 | Stoichiometry = C26H48ClCuN4S2 | MND = 3
Cu        7.25201079017290    1.59025103386253    8.82805021984396
Cl        8.92840909423739    1.41543450384688   10.25942548149338
S         5.92624771978685   -0.37274008048831    8.63257262391850
S         6.85017197893560    3.42820547875395    7.49945095448029
N         5.88745761906025   -2.66699997052102    9.89909702053166
N         7.28924687921412   -1.04391240255033   10.77532744255638
N         4.50613624768114    2.27134552993194    7.26159130824129
N         5.00907663440957    3.88186395803631    5.67392680284062
C         6.41407066309061   -1.43056201936206    9.86586382625553
C         4.75076810813365   -3.11483979019372    9.12306633303390
H         4.75189004068084   -2.53470919139554    8.19593759523124
C         3.44101143680583   -2.86066662814048    9.87651729125635
H         3.47159558082535   -3.38320283771676   10.83645958283934
H         3.34419168351770   -1.79157575480132   10.07496599649589
C         2.25179839465230   -3.35724807926004    9.06139130821169
H         1.32860526120967   -3.19140171155298    9.61979470440292
H         2.18867983795704   -2.78725500124381    8.13313480376525
C         2.40629543045975   -4.83920801308203    8.73443893615896
H         1.56092508110163   -5.17606240864468    8.13186040259700
H         2.40808033701496   -5.41829675152466    9.66076701089281
C         3.71012514797355   -5.08443970616464    7.98103446192912
H         3.68623361754306   -4.54851607531010    7.02995036586043
H         3.82181829939973   -6.14819375422596    7.76358578231687
C         4.90159621634407   -4.59982884287136    8.80210243248307
H         4.95516466151303   -5.16847584673126    9.73463940071552
H         5.83022205186485   -4.76243388012277    8.25207515734408
C         7.88165960597679   -1.84578124031906   11.82688086016126
H         7.13545046720958   -2.55020624715037   12.22351963954975
C         9.08976373438403   -2.61946968690055   11.28757249539901
H         8.77284120880440   -3.29702640239094   10.49009022545450
H         9.78637425767282   -1.89688291950881   10.85940727131955
C         9.77501455883630   -3.39739523937799   12.40587033203357
H         9.08449052298523   -4.14239047837415   12.81164184849979
H        10.64030731258093   -3.92852667066896   12.00519443646521
C        10.21072085195627   -2.44945860437870   13.51835951132159
H        10.69441802677130   -3.01221802088062   14.31929882713369
H        10.93426946980065   -1.73637297199013   13.12012278488202
C         9.00751636845722   -1.68901208025647   14.06615348319073
H         8.30215581134195   -2.39655036557071   14.51165939332608
H         9.32707057884015   -0.99968825410962   14.84892811995621
C         8.31801862002774   -0.90829275118200   12.95209616935172
H         8.99898914749232   -0.16505206658507   12.53575353041667
H         7.44548155603379   -0.38146649354913   13.34295627354173
C         5.36124997303010    3.17122582122713    6.75308037342690
C         3.40004108598290    1.64208575465172    6.56310183385874
H         2.75669433494835    2.42223737505713    6.13351266702833
C         3.91520862998387    0.72100853558472    5.45149169197070
H         4.58628909043638   -0.01040973367253    5.90644697398262
H         4.49086076222047    1.29953878786213    4.72584820980244
C         2.75592470198093    0.00882958826478    4.76305223467913
H         2.10381792577680    0.74529351933511    4.28631590164941
H         3.14140508249356   -0.64983126000579    3.98313638452023
C         1.95500753060766   -0.79715255783148    5.77958979251276
H         2.60324869226238   -1.56047443780026    6.21434611491190
H         1.12131565650735   -1.30062098734237    5.28636096355288
C         1.43353691234548    0.11388072710523    6.88638640102699
H         0.87900463975884   -0.47044513365792    7.62257616322314
H         0.74673840916505    0.84801228728376    6.45789705036268
C         2.58981333913552    0.83374181863803    7.57397394247190
H         2.21295771209447    1.49685522782513    8.35453490671107
H         3.25479260741214    0.10255603722713    8.03729633576901
C         5.78200464316674    4.97630862892203    5.12415531873301
H         6.83412592637255    4.74586220011664    5.31559286128632
C         5.43415592997774    6.30147106603794    5.80729809959109
H         5.63603935345579    6.21307134729277    6.87546301566158
H         4.36909045763849    6.50994186547278    5.67385043041858
C         6.26144180469737    7.43230421782708    5.20525845731992
H         5.99864419838848    8.37636354248364    5.68549420096901
H         7.31881115149347    7.24119961339807    5.39633807918642
C         6.02493590803803    7.52801961510675    3.70105388801395
H         6.63829893774174    8.32582760568494    3.27892928835523
H         4.97766491027714    7.77646515580579    3.51229479915169
C         6.36236359582702    6.20368831467964    3.02293520206575
H         7.42275736137628    5.98529318024494    3.16213867544180
H         6.17118896155677    6.27284636870755    1.95034969435904
C         5.53415514010655    5.06981912816052    3.62082876741232
H         4.47253742589434    5.26149597320192    3.44004410634399
H         5.79460505852074    4.12235881215699    3.14487813989269
H         6.13289760000002   -3.25161898992555   10.68492670030601
H         7.80882938463951   -0.15264512751679   10.60773858048736
H         4.91157753950139    1.69646406310252    7.99778983364033
H         4.05759671247589    3.80379078401618    5.34576147227606

