50
CSD_code = WODYUM | q = 0 | S = 0 | Stoichiometry = C17H23BrCoN5OS2 | MND = 6
Br        0.82716325602887    1.95218845428436    0.73215988135557
Co        2.91429409558445    8.08824628784393   -2.58179263069139
S         2.46849848467278    6.99588104526587    1.67162762548076
S         1.82291423335243   12.42141937242333   -1.89608644963458
O         3.39696554248840    6.26068177168411   -2.54380439951415
N         1.08664651562448    7.63795856674622   -2.41789080839132
N         2.67851457981818    8.09422089094846   -4.64369210080535
H         2.91123332805512    9.06388693084496   -4.87093426902845
N         5.07394925360511    8.43367058392192   -2.82587980958417
N         3.04675277167607    8.15273021551915   -0.75906350322658
N         2.62046504229992    9.90346222333017   -2.66406277641631
C         2.82499196087716    5.36070554922806   -1.83045071077927
C         3.53360644082168    4.19039237846656   -1.46338597344118
H         4.56329832479418    4.10144210450702   -1.77600085245981
C         2.95162850612998    3.20859933563768   -0.70783478928610
H         3.51641116500588    2.33570308688801   -0.41675505012617
C         1.62109464374058    3.33821830073638   -0.30350756134475
C         0.88071324792798    4.43534542567979   -0.65779881856923
H        -0.14735011933047    4.52885010313095   -0.34035721067834
C         1.46319042946362    5.46013812049841   -1.41816314217409
C         0.67159452007215    6.56127436679381   -1.84283869163097
H        -0.40366986515158    6.44140517221479   -1.69602223899978
C         0.08670169234643    8.54849795769235   -2.93247003393403
H         0.10098477471407    9.46424492527666   -2.33619549066824
H        -0.90455020839145    8.09173585859061   -2.83045934173578
C         0.34793669564097    8.89244077395035   -4.41319531925076
H        -0.60236606225921    8.89677664393167   -4.94764655171768
H         0.77755889601424    9.89186173303701   -4.48749525911559
C         1.29230585258929    7.90237675711822   -5.09064228465016
H         0.99186184405682    6.87307535715219   -4.87379868386209
H         1.23597447027102    8.04729802333337   -6.17983893973518
C         3.60074509775469    7.23929313665734   -5.39275937427558
H         3.31826350552870    7.22922219255499   -6.45634356854210
H         3.52028937665868    6.22023592201237   -5.00671213801157
C         5.03908641077768    7.72674820996675   -5.27419471006602
H         5.10372431336124    8.76577912976902   -5.60434906386267
H         5.65334773437237    7.13320988195078   -5.95476485180121
C         5.62803868155232    7.56113910459936   -3.87593989626526
H         6.71334936961560    7.73578257589969   -3.93862650601203
H         5.46512878024941    6.52928637489764   -3.56026601656786
C         5.75032740908754    8.05434714104562   -1.57773888439584
H         6.83790993195481    8.14282428503219   -1.68923007035642
H         5.50108062767488    7.02902420980049   -1.31563982104207
H         5.42242364363094    8.70245647836903   -0.76941154614316
C         5.44125082637688    9.82733899404039   -3.09709905649375
H         5.12687969857071   10.45299328881253   -2.26578151393547
H         4.95395478899267   10.20171364248974   -3.99344516934562
H         6.52761907481476    9.91906049419091   -3.21925387776705
C         2.75584038495891    7.61918096047631    0.25372947723220
C         2.26962603152726   10.95253566075803   -2.25049722773264

