13
CSD_code = WODZUN | q = 0 | S = 0 | Stoichiometry = CH5Cl2N3PdS | MND = 4
Pd        2.89815201350782    2.65027387788108    7.17958005771106
S         3.92071960550780    4.00258496630962    5.51355783899749
Cl        2.33465622800983    4.26600544937704    8.56726198470617
Cl        2.03021587459108    1.10410888756187    8.51849761483567
C         4.35897170775212    2.78923827124131    4.45009971248500
N         5.00245883825229    3.11310277307586    3.31275131768023
H         5.28289497573018    2.43508739467266    2.62581453954166
H         5.18813631872441    4.08588591103735    3.14251790422479
N         4.10741491570147    1.46989968987137    4.65628861380879
H         4.41099173211218    0.78969803680725    3.96556430782153
N         3.45486280689353    1.02291057065885    5.80566034909198
H         4.02951273836592    0.40860852170011    6.39369221697407
H         2.55621224485132    0.56459564980555    5.61631354212155

