108
CSD_code = WOFBEA | q = 0 | S = 0 | Stoichiometry = C51H49ClNO2P2RhS | MND = 7
Rh        4.97744613746769    3.60799811686367    2.65713461560825
Cl        5.65688015387710    5.94764723551517    2.71062541162807
S         1.60285914327770   -0.94855502771691    4.82375396124255
P         6.70331698853910    3.51180129827092    1.11530624942877
P         2.98866623996325    4.08461290167693    1.48253832629895
O         1.35177426797314   -1.74323147397314    3.65798069993787
O         0.55127074236191   -0.11949372319299    5.33715749138658
N         2.87392564106200    0.04322705758176    4.46049685891329
C         6.90237433319459    2.23666004055937   -1.41465136141352
H         6.83169780783606    3.22034221041502   -1.85608516001752
C         3.13689951239607    1.42744439445454   -1.60382195975512
H         3.92131163728105    0.99169859004630   -2.20593379282938
C         2.05109974144776    5.70356133214941   -0.64879191802570
H         1.79842149423221    4.78789077239328   -1.16281780316120
C         4.42604345501528    1.58142922556426    2.49448293219345
C         4.92576008632186    0.71883013513722    3.64860883532295
C         1.79199098541993    6.91587304489465   -1.26340365796546
H         1.33351399630605    6.92829602916597   -2.24213864339777
C         4.97732783874803    2.94585377403755    4.74055755006885
C         2.47383582215148    2.88713159141987    0.19682151341620
C         6.85731911358447    4.90228745291212   -0.06246332813528
C         2.97432915624079    6.86757970051852    1.23532833830805
H         3.47664234672785    6.85542856397304    2.19066858557523
C         8.37622992635752    3.55183282846820    1.87556219398293
C         6.99947496711424    1.12483830648976   -2.23369614725375
H         7.00997069038493    1.25263073289852   -3.30655508976681
C        10.87807456604683    3.75857452498101    3.09291221805727
H        11.84680336711841    3.83479614201964    3.56484870355320
C         6.89163316731869    2.09150149260831   -0.03153577978434
C         2.60699454604318   -2.36883733183518    8.46140995988929
H         2.48328764147606   -2.06781678223447    9.49142548202248
C         2.91160102093932   -3.14480238622896    5.81723751206017
H         2.99452404403868   -3.43212112929815    4.78075352007854
C         3.31822571760729   -3.52629924493380    8.16413444338442
C         8.13913858569649    6.47955574726871   -1.34289485333097
H         9.09733709331680    6.89242739276354   -1.62375500642102
C         1.81131209221165    1.09634335579663   -1.82805755927106
H         1.55095042405021    0.39420166503962   -2.60623238831159
C         8.71561629383991    4.68281622980850    2.61827967678786
H         8.00081779926994    5.48716821572427    2.71457362761307
C         6.97541526780162    7.00092239534436   -1.88311522018165
H         7.02416676747363    7.82540456642676   -2.57917009100153
C         6.29318934070960    3.29354597008822    4.34209946384448
C        -0.03073937098062    5.14532100568190    4.06523796067728
H        -0.43893181842523    6.06356534211500    4.46273000257893
C         4.70299592543418    1.47398082757677    4.97686036035485
C         3.99683430602544    3.93525393414410    4.61351772567785
C         3.29314463511342    1.04236365557358    5.42490757054051
C        10.55398944962426    2.63897808057169    2.34779924906288
H        11.27155059309474    1.83909208164281    2.23152165680300
C         6.97687344926598    0.81016017696651    0.50989642364837
H         6.97945889274567    0.69177821207951    1.58389396378182
C        -0.00068669021284    2.75333556658872    3.96425301572696
H        -0.35828690207323    1.79059273688685    4.29673208855873
C         0.81719687508483    1.67331740545217   -1.05382745264850
H        -0.21888052769698    1.42630649136600   -1.23379965016988
C         3.45944157413916   -3.90814592540996    6.83209495937557
H         4.00210992855764   -4.81133365425869    6.59371048274303
C         1.53540513123942    4.03356145975793    2.60751863346764
C         9.31396709476921    2.53430534188954    1.73929991054536
H         9.09496124890596    1.65717090233255    1.14929663855011
C         5.75005040154586    6.46266516081500   -1.52670279953874
H         4.83453546676152    6.85955827595116   -1.94055294795668
C         3.90450092214346   -4.36992775704474    9.25344895248919
H         3.30216016236018   -5.26766889757160    9.39160983655358
H         3.93154679436161   -3.82910014672536   10.19562882459577
H         4.91390615294103   -4.68437168166998    8.99625566029445
C         2.21323198954499   -1.99593660169488    6.13684653470418
C         2.05506589302227   -1.60044685367076    7.45025263310588
H         1.48351561269816   -0.71001833379440    7.66114560783668
C         9.95458185862887    4.78372001152871    3.22077457498275
H        10.20141723666774    5.66775674216005    3.79029528097861
C         7.08195659119669   -0.14395660884556   -1.68593909055432
H         7.15329308224335   -1.00920070453279   -2.32833764647705
C         1.14133372651407    2.56796249794453   -0.05001407093486
H         0.35639415600623    3.02193941075071    0.53746319665044
C         4.03738848177546   -0.51694933335717    3.81428867044172
C         5.69699640051944    5.41623806634360   -0.62690727823631
H         4.74300182144921    4.99515548205017   -0.34111677195925
C         7.07314108425942   -0.29896410805983   -0.30929460104356
H         7.13967903465174   -1.28583004709293    0.12558767767257
C         0.99737683931703    5.20152962626959    3.14031176072178
H         1.37932302070893    6.16351555201795    2.83385887517379
C         2.63988524455696    5.66679864710352    0.61225392143984
C         3.46109525691147    2.31908253359104   -0.59825965974903
H         4.49465523086976    2.58296803941210   -0.41962799397907
C         2.11959531830644    8.10505073886564   -0.63450453943289
H         1.91835100031502    9.04875716717842   -1.12047053828415
C         8.08644999882157    5.43427342277648   -0.43790668414758
H         9.00209269573367    5.03848503215002   -0.02354711099795
C         2.71529529126465    8.07612429964928    0.61473283661336
H         2.98642669984209    8.99749487784424    1.10858265841975
C        -0.52749604433350    3.92370504795282    4.48649643659277
H        -1.32111422614882    3.88177063258494    5.21763124359509
C         1.01805919406529    2.80878681654097    3.03040022524081
H         1.40123494579604    1.87907782875279    2.63510239839165
H         7.06095802627745    2.52629067823406    4.38915773588530
H         3.73630623727774   -0.97254456235208    2.87150320353716
H         2.96348609422015    3.70557300174212    4.83891866386333
H         5.42631240626885    1.13112749353744    5.72569372019549
H         3.33535810744451    1.54568755164867    2.53502153676564
H         4.52749363006870   -1.27591682559553    4.44606173242341
H         4.72119497108937    1.12582014823418    1.54469464534898
H         5.97491001674470    0.44135429273541    3.52284812410108
H         3.32916340721299    0.61971962193429    6.43829503632176
H         6.66606459620906    4.28179861584313    4.59548373751746
H         4.26814709699941    4.96739538669052    4.81791460451003
H         2.55700432007993    1.84585018665234    5.42089923625014

