100
CSD_code = WOFGON | q = 0 | S = 0 | Stoichiometry = C34H58ClN2O2Si2Y | MND = 9
Y        -8.24919834436309   -1.65978020156089   -6.52435373823983
Cl       -9.61056098777946    0.25645703229062   -5.89847384419829
Si      -10.16471217078215   -2.73024581274127   -9.07159364989414
Si       -5.83181893953560   -1.28764091752648   -4.22123274004234
O        -9.60611299181555   -2.89468962289124   -4.88721866292833
O        -7.11156545631600   -0.09528930687648   -8.04291738419786
N        -8.82220139131617   -3.01027750710510   -8.02408927944995
N        -6.40840785957674   -2.11255870777607   -5.62283256270616
C        -8.48759787963074   -4.23387244451931   -7.46388060439355
C        -9.43855513190155   -5.23656339448013   -7.22383782974508
C        -9.09246831573731   -6.42715651281777   -6.61825568694800
C        -7.78802546588534   -6.65233330147551   -6.21824887019704
C        -6.80641140538392   -5.69937789302916   -6.46951578311980
C        -7.13798376152342   -4.50496487707790   -7.10827021375366
C        -6.02064982274562   -3.59618380312305   -7.50891265012747
C        -5.62930178588366   -2.49032813338785   -6.70583780524404
C        -4.44939751477290   -1.81727172935550   -7.05524031208873
C        -3.71694867218625   -2.17772489486373   -8.16774972945825
C        -4.14361120102183   -3.21431648387974   -8.97749501228382
C        -5.28781929834814   -3.93259508359924   -8.64671125416284
C        -5.68975994212734   -5.09041522844023   -9.51515505995682
C        -5.38983969832805   -6.00165257311362   -6.07131996798291
C        -9.96646016020357   -3.67470670554057  -10.75353841271351
C        -9.99586624336298   -5.18717520612905  -10.54320203854035
C       -11.09922296558634   -3.29290242123586  -11.70567207041161
C        -8.63255618253773   -3.30429183807620  -11.40407100180263
C       -10.14143516076422   -0.84813641555805   -9.43127495160809
C       -11.93712710549389   -3.04522636222861   -8.37609935837052
C        -4.59709554057105   -2.38165985711645   -3.20206344926493
C        -3.31697465125537   -2.64919536483563   -3.99100544135232
C        -4.22737844997783   -1.67731808048590   -1.89717786495959
C        -5.24590536654062   -3.72569205375504   -2.86742408035120
C        -7.38748992726039   -0.97225285735187   -3.14728294550490
C        -5.06994173336450    0.47011920423326   -4.45446800571771
C        -9.16275778300243   -3.97005319526855   -4.04802018585033
C        -9.89679949381473   -3.82040764926516   -2.70208508754310
C       -10.87273551634376   -2.66095158981340   -2.94110657198741
C       -10.93792874209008   -2.59830851521416   -4.46448728118683
C        -6.99938850428456    1.32216642756314   -7.90369712854233
C        -7.40340843904247    1.86816424836674   -9.26984291426609
C        -6.79923782666972    0.83206759842957  -10.22592450371828
C        -6.57138139545164   -0.40424841518401   -9.33561421925345
H       -10.45956372167971   -5.05429500691700   -7.51443567164824
H        -9.84865980289234   -7.18147639639689   -6.44984396167904
H        -7.52057473458689   -7.57623129104987   -5.72703773257887
H        -4.12675515200617   -0.99538945375273   -6.43839964776747
H        -2.81052065075809   -1.63976502789376   -8.40889220136568
H        -3.58049760728997   -3.48453553463299   -9.85856515265858
H        -5.44739660326776   -4.88395790119818  -10.55589260312378
H        -6.75252628543886   -5.29887935769427   -9.42961758542673
H        -5.14758926364829   -5.98886764065793   -9.21944743698186
H        -4.90631071343330   -6.61281658982640   -6.83380377318112
H        -5.37173898251242   -6.56113543578942   -5.13788035818610
H        -4.80872802489912   -5.09123249438606   -5.95426416365230
H       -10.94472617510651   -5.50168264745539  -10.11513322421671
H        -9.86628265563883   -5.70833540103316  -11.49246244059173
H        -9.20048984371528   -5.49916671071718   -9.87092155419993
H       -12.06327765359655   -3.57979982341347  -11.29388271349488
H       -10.97638093061417   -3.79668268999435  -12.66471729893150
H       -11.10949131014128   -2.22060408345642  -11.88411272494831
H        -8.47312481413594   -3.88966841794737  -12.31016974831055
H        -8.61555653443595   -2.25175090498451  -11.67876127846412
H        -7.80822833026376   -3.49650626808991  -10.72193733053788
H        -9.41925591957750   -0.58002142592773  -10.19362241787262
H       -11.11507694170080   -0.51964078499971   -9.77906175059043
H        -9.91413012296201   -0.27851881476960   -8.53078431191318
H       -11.99281307884993   -2.73915471775374   -7.33410603029812
H       -12.24442415392136   -4.08504844215351   -8.43461280318010
H       -12.67290647038126   -2.46312712004753   -8.92195166632368
H        -3.53935370521806   -3.15532417057660   -4.92711705766854
H        -2.80126863968997   -1.72005986422483   -4.22158000425701
H        -2.63630182690833   -3.27728219854555   -3.41507957562778
H        -3.72518967806886   -0.73418046651539   -2.09604187344561
H        -3.55694996003914   -2.30045184614715   -1.30479127554541
H        -5.11471834625612   -1.47319477828602   -1.30327258996826
H        -4.53422722675560   -4.37845599816497   -2.36093755715663
H        -6.10118934611852   -3.58904828355405   -2.20912690865681
H        -5.58304882411882   -4.22299207930155   -3.77333003717410
H        -8.23434870412317   -0.66593362343271   -3.76087182885424
H        -7.68118386967049   -1.84522527471255   -2.57623221687176
H        -7.20060969044994   -0.17167540983312   -2.43951177220452
H        -5.13354915798646    1.04207176048170   -3.53398920192576
H        -4.02455474947023    0.45136677657211   -4.74790353508711
H        -5.61950969581509    1.02083119298974   -5.21441234446933
H        -8.07651338695112   -3.89108357424402   -3.96696394905995
H        -9.41776060003049   -4.92398329456594   -4.52630818898538
H        -9.20853673032833   -3.60137703661341   -1.88853742735231
H       -10.42894981774913   -4.73801662860368   -2.45597252174907
H       -10.46341513895863   -1.72722486011786   -2.55640797381933
H       -11.84848308325827   -2.83017551712657   -2.49251128395768
H       -11.20894329652137   -1.61366082978333   -4.85095467093932
H       -11.62587220406208   -3.36151318811076   -4.85654551729529
H        -7.65759426832685    1.63968929173581   -7.09234709764802
H        -5.95750863402306    1.58702373832732   -7.67182820395823
H        -7.02608954140846    2.87302003374893   -9.44189430475861
H        -8.48992891232492    1.87908096554114   -9.34976570028424
H        -7.46811954312950    0.61523688766880  -11.05605093246180
H        -5.85365081305583    1.18297834921299  -10.63687809713266
H        -7.08082720151019   -1.30185417847992   -9.69301948051531
H        -5.50033770566581   -0.61830506659755   -9.23269913500629

