93
CSD_code = WOFKAD | q = 1 | S = 0 | Stoichiometry = C49H38NO2OsP2(1+) | MND = 6
Os        5.22140935954726    1.09010785300353    3.64754653157736
P         2.93435391504440    1.49038194526873    3.02615811771295
P         7.52804101422595    1.07372846484764    4.32208366234463
N         4.89543988297499    2.46128061505312    5.23560888670130
O         4.48361112390692   -1.28042556879479    5.45481067179024
O         5.73843688614753   -0.63238080357625    1.20534374132456
C         5.65917197891516    2.89999197247090    2.70820015291034
C         5.50788837450819    4.02441545334152    3.55209477700345
C         5.74895159216976    5.31979686335929    3.08197167060870
C         6.14483797275416    5.52614692387012    1.77901417561008
C         6.30475943174241    4.43856321500829    0.93467496111920
C         6.06439983398364    3.15737751255877    1.39728398296370
C         5.09485160783084    3.76052190898879    4.92589737710965
C         4.90953620199573    4.75586761889996    5.89190998658764
C         4.52097832394061    4.41964238703358    7.16862484309061
C         4.31933606087677    3.07933016705962    7.47084994150628
C         4.51879030208159    2.14690774705514    6.47631793605305
C         4.76455199994844   -0.40944162955804    4.76716769642331
C         5.54576061422247    0.02047246890117    2.13291200366128
C         2.04638879060631    2.36384402485580    4.34841067265642
C         2.12041020043988    3.75161414506760    4.45219532578271
C         1.51357309843435    4.39786588362890    5.51367626513900
C         0.84808010351732    3.66798211970691    6.48554341006459
C         0.79553492224801    2.28588544950205    6.40045192779518
C         1.39793551338399    1.63269570832465    5.34085274299600
C         2.57276762170569    2.41025078143468    1.49473037641664
C         3.29083757679736    2.02821759941745    0.36446014567189
C         3.03973247448342    2.62160059298843   -0.85708932263977
C         2.06146171284186    3.59758424806962   -0.96197714170198
C         1.32318567107305    3.95790742957725    0.15241103638052
C         1.56803193403931    3.36446982288522    1.37887237303301
C         1.88050954589657    0.03293172162626    2.72032168571209
C         2.41696099428984   -1.24096596454394    2.58332208529492
C         1.59126633799423   -2.31536641283685    2.29910711070963
C         0.22909500865217   -2.12162573062589    2.14623877037707
C        -0.30987251294613   -0.85000610626652    2.27308715464755
C         0.50975371929646    0.22560789293441    2.55382400411982
C         8.31060872949863   -0.55240688518367    4.58954418795223
C         7.72424996678473   -1.72470445475746    4.12958719556209
C         8.37226794224406   -2.93684906662155    4.29527897125077
C         9.60929974113431   -2.98252810139621    4.91516626515557
C        10.20383053522556   -1.81327707439507    5.36560353382154
C         9.56291061719548   -0.60101920529787    5.20019496532023
C         7.74214685352553    1.90356812679186    5.92352449055681
C         7.87060022387690    3.28979017651225    5.98677421790549
C         7.94721351806320    3.92055929967038    7.21514521757425
C         7.87707104241279    3.18011797351635    8.38426819842590
C         7.72106242466258    1.80445814293521    8.32572289124152
C         7.64554522271335    1.16634032294161    7.10125484097978
C         8.79159923123486    1.79283166366500    3.22243680281833
C         8.71149652442877    1.44130795707657    1.87753790796952
C         9.66880179297181    1.87717043206026    0.98250666542379
C        10.72140695847069    2.66200697820795    1.42584176392087
C        10.82194601404539    2.98844643291046    2.76752845188080
C         9.86716393073633    2.55207401775750    3.66984923350880
H         5.62833462951148    6.17317661534666    3.73202296352940
H         6.32950263303608    6.52737188372354    1.42113509394557
H         6.61756732633693    4.59066285313706   -0.08757468572888
H         6.20104970259658    2.33886998741200    0.70387380233917
H         5.07202160160317    5.78918315021999    5.63574436042744
H         4.37627479701451    5.18125095855383    7.91878342729970
H         4.01492079201281    2.76317762390995    8.45441322401739
H         4.36697766019434    1.09756373485176    6.69361176639435
H         2.65283597639847    4.31956674392138    3.70063821569286
H         1.56090172759602    5.47437110092016    5.58287271997308
H         0.37260835126860    4.17637364351619    7.31017044740628
H         0.28353956414251    1.71591340877967    7.16083090746876
H         1.35931307285195    0.55362054193095    5.27277286920086
H         4.03985577527786    1.25392146478711    0.45475852221604
H         3.60275251611783    2.32232420980968   -1.72792867136818
H         1.86682035841329    4.06863445729914   -1.91309646068933
H         0.54658299997824    4.70321552087162    0.06868038397758
H         0.97106991821450    3.64723073300112    2.23370057434811
H         3.48316197629186   -1.39174997096951    2.69950891589767
H         2.01334675676938   -3.30335968036367    2.19579959531251
H        -0.41362969880043   -2.95964071446058    1.92513375759037
H        -1.37115339737952   -0.69749032418777    2.14918922947305
H         0.09149474795818    1.21825242089820    2.64840825105992
H         6.75853636519925   -1.68718785717061    3.64025994751879
H         7.91083576750303   -3.84499011395960    3.93843506939653
H        10.11335904990587   -3.92772748284427    5.04468157632662
H        11.17107663488715   -1.84748294057042    5.84333431317942
H        10.02803090447572    0.31175145571688    5.54620072152931
H         7.91102708635352    3.86826785760766    5.07317837864033
H         8.06134399538794    4.99330995690954    7.25998405683525
H         7.94155352264933    3.67560666685153    9.34072904523120
H         7.65862279164531    1.22765285988231    9.23595823489083
H         7.52229926682295    0.09257319270826    7.05289928823053
H         7.89607521463578    0.81398848980298    1.54590249278174
H         9.59797088837594    1.60275432013363   -0.05895659011763
H        11.46840430148649    3.00926662253037    0.72884717727602
H        11.65202160361849    3.58287618454323    3.11855396592070
H         9.97061236084991    2.80383536804286    4.71526757272063

