108
CSD_code = WOFMAH | q = 0 | S = 0 | Stoichiometry = C56H43N3OP2RuS2 | MND = 6
Ru        9.09246796500005    1.12806112566410   17.24456722189169
S         8.39215078609183    0.82713103410212   19.54442580034977
S         9.28152519299422    1.21179047783829   14.82974375629241
P         8.15831564186015    3.24732649106136   17.14121793817898
P         9.87123292996099   -1.05465690651236   17.30364585030982
O        11.80207539772472    2.24316905252040   17.86086941028207
N         7.24000031809221    0.37676435335785   16.83303226493869
N         5.83076745923019    0.25834332819608   20.09520057884606
N         7.44135706105776   -0.00261082440350   13.30392841675548
C        10.76243184426130    1.81217639268036   17.62153227634800
C         6.37177114632906    0.11267454487409   17.82051192226346
C         6.74176447593345    0.39931691695215   19.21303904103431
C         7.80258664661441    0.37643647146901   14.46758124594618
C         5.10503781006315   -0.41242287051918   17.57271572568673
C         4.70821321062294   -0.64779267730208   16.27202327715600
C         5.59793756178617   -0.36220061303541   15.25635486650429
C         6.86091051778355    0.13635286199979   15.56920637863998
C         5.93744574267558    0.60223078068263   21.42236423124710
C         6.34483437435616    1.87614319816253   21.82537755849157
C         6.32382813934635    2.22069900362587   23.16113184923181
C         5.91018401311197    1.30657171356135   24.11629038123155
C         5.50132827997750    0.04227023282058   23.72233538011176
C         5.50077060107523   -0.30731927990940   22.38739935923500
C         8.23022394808295   -0.00051787091969   12.17776235771936
C         9.49247572290405   -0.59929885486129   12.15940064919907
C        10.20310947115847   -0.68414607470089   10.98003242712419
C         9.67946988450862   -0.16834513535751    9.80572206004938
C         8.42574783192507    0.42266825697745    9.81633656654303
C         7.69809045374916    0.49685057424978   10.98656258099349
C         6.55384229526932    3.22611409075130   16.29361243047554
C         5.39432444052900    2.86254817403865   16.97678738348850
C         4.20985879862730    2.69304378160039   16.28425439955206
C         4.17677625089578    2.86252306788006   14.90939188821926
C         5.33108917973872    3.20437767612118   14.22392501407626
C         6.51797921857548    3.38305879202956   14.90976080068673
C         9.04417852521988    4.56186870150129   16.24118333806168
C        10.26184192069273    4.32345096983248   15.61804347342898
C        10.91372177005796    5.34946350289884   14.95570644424840
C        10.35565153332398    6.61517249574772   14.91408615312744
C         9.13815601122743    6.85651895911705   15.53226816329602
C         8.48361008675006    5.83673407972596   16.19454067949177
C         7.86801440866542    4.11008778190616   18.71892940043066
C         6.75624236195217    4.89979591331017   18.99205742365114
C         6.65265885724527    5.54430582539649   20.21269112479721
C         7.65425867027034    5.41503979255705   21.16009386976568
C         8.77241665915014    4.64391003436530   20.88532418179112
C         8.87956979118808    3.99598081400688   19.66975079281830
C        10.96481065083726   -1.57305007204072   18.66667351716978
C        11.38243430738356   -0.67944012928804   19.64369608957263
C        12.22862404728847   -1.10336752471531   20.65400368114055
C        12.66228342890893   -2.41700602745257   20.69220827408558
C        12.24549414192245   -3.31314993509566   19.71957754571297
C        11.40182563643620   -2.89553107199491   18.70924712255761
C         8.50687168696443   -2.24300856800062   17.44270843747332
C         8.04898560662182   -2.60141199087658   18.70889326161898
C         6.90944645019515   -3.37294197975675   18.83946514506107
C         6.21594022883536   -3.78490781049384   17.71307182043176
C         6.65931387831064   -3.41947030516403   16.45221571162349
C         7.79412128101646   -2.64209340167501   16.31315840749447
C        10.86969625053200   -1.62093734064812   15.88901667005422
C        10.80222971591066   -2.89709461101516   15.34017437772008
C        11.63237006327240   -3.23825070733420   14.28637472952187
C        12.53644072932874   -2.31908811623320   13.78108124728771
C        12.61995584038831   -1.05238885230387   14.33665336105341
C        11.79191538624589   -0.70577735974797   15.38690774858264
H         4.46957461628846   -0.60603953116208   18.42084412333971
H         3.72855990315672   -1.04493529493935   16.05497824429082
H         5.36632349868728   -0.52012256975726   14.21616254670526
H         6.65955721282986    2.59214715008397   21.08066828089893
H         6.63697565116318    3.21186013889766   23.45741161781768
H         5.90240407756545    1.57823890994255   25.16165989188906
H         5.17510133379500   -0.67444378227205   24.46270747637694
H         5.18424418086124   -1.29031709111110   22.07115365065801
H         9.89813401823013   -1.00957961674621   13.07262413257971
H        11.17628125788951   -1.15483275327897   10.98091510299510
H        10.24270121318000   -0.22993366275102    8.88616083962708
H         8.01066373553082    0.82431373518808    8.90240579653785
H         6.72039507197996    0.95577641079373   11.00389179237601
H         5.42238032298777    2.70467973656734   18.04794526933000
H         3.31330862766773    2.41694665179863   16.82013952312032
H         3.25077607163332    2.72113364777938   14.37195667102686
H         5.31019778394896    3.32428890829275   13.15104053672171
H         7.42556403053938    3.63523406159291   14.37707838662881
H        10.68952499060966    3.32967599191084   15.63335878270665
H        11.85861362273328    5.15653671977827   14.47020329077247
H        10.86587415445844    7.41515559928325   14.39825597114546
H         8.69925216722874    7.84303456977703   15.49748138630729
H         7.53428825229048    6.02477210432145   16.67671191358518
H         5.96609073706005    5.00904998752307   18.26188912477411
H         5.78171541157060    6.14765675448015   20.42425951555952
H         7.56182029561641    5.91495119799969   22.11294070626240
H         9.55531545281345    4.53997578766289   21.62136029690791
H         9.74381478624384    3.37990972828295   19.44973014477054
H        11.02796870305074    0.34263675305150   19.62585471082136
H        12.54622486304516   -0.40457511665164   21.41333601381696
H        13.32270644311672   -2.74640525186166   21.48068531656825
H        12.58013556216729   -4.33990367941128   19.75002666548234
H        11.07626247587653   -3.59425769315268   17.95102654202726
H         8.58588074448781   -2.26463269671093   19.58610132726295
H         6.55810857469636   -3.64581748171484   19.82333377656048
H         5.32471393174225   -4.38595047211120   17.81682113704046
H         6.11468136982546   -3.73035375668391   15.57253747298244
H         8.12398938344495   -2.33791821199751   15.32743642125333
H        10.09936898716690   -3.62425341816882   15.72305911608500
H        11.56799212270874   -4.22720320275378   13.85609096575115
H        13.17444538092895   -2.59039802380428   12.95297986788462
H        13.32255750687608   -0.33228455117209   13.94509925828892
H        11.84000693415801    0.28673896142970   15.81973091076711

