60
CSD_code = WOFNUC | q = 0 | S = 0 | Stoichiometry = C20H36N2OZn | MND = 4
Zn        1.99600914557308   11.42308002710728    2.01244109485103
H         0.82127463202193   11.26580194491482    2.89422390852231
O         2.96904854796178   10.10632772012242    1.15294073289238
C         3.90029021570879    9.55296586455256    1.90427960908651
C         4.90046438563967   10.36575698734231    2.47619556480123
C         5.87805403104464    9.84590620398785    3.30674971994625
H         6.60925531804461   10.52788153488074    3.71576958879012
C         5.92361365963649    8.49302200601989    3.59138366923413
C         4.96789925234737    7.68379211226859    2.97913813814629
H         5.01210534844417    6.62584757638625    3.17523722864503
C         3.97439541666344    8.15640708462684    2.14275729236745
C         4.91793749751741   11.82084849192399    2.09903088473658
H         5.83719452130566   12.30484433182257    2.46349138337678
H         4.90925497549782   11.87690421205125    1.00882165778235
N         3.74017124251512   12.54995102187260    2.60252152074603
C         3.61499787201068   13.85255108175315    1.95256803350632
H         4.58188841071041   14.37964231728751    1.93260788448886
H         2.91554770327029   14.45477811231689    2.53879700924924
C         3.09028027616664   13.71856849618936    0.52265886639589
H         3.00017205023802   14.71960442268319    0.07453514480319
H         3.80950018362402   13.15214875578314   -0.07009087349645
N         1.81263517080580   13.00716207087146    0.48239988267736
C         3.87144537425415   12.71081266233430    4.04589613346301
H         4.73226557029561   13.34367150950380    4.30096048942241
H         4.01254540307743   11.72966967038307    4.49674939964500
H         2.96730662984085   13.15781380589387    4.45800800530590
C         0.70904113209248   13.92523656569511    0.73816550914960
H         0.64171095522628   14.69573370264398   -0.04170068625350
H         0.84120124119993   14.41142719274896    1.70202599185850
H        -0.22590563568983   13.36939305177047    0.76671960235683
C         1.62371052649401   12.37130548618305   -0.81855001834956
H         1.66789746292977   13.10191415878566   -1.63686336455625
H         0.65356794328021   11.87766185232582   -0.83746921417604
H         2.38901293779791   11.61235364149774   -0.96338533028138
C         2.96746533777131    7.21534129563865    1.49162481803452
C         3.00537687709452    7.41866721908144   -0.02860706574760
H         2.26794245892755    6.78272965018593   -0.51548028900543
H         3.99178749358879    7.16923304873229   -0.41579261334209
H         2.78837147191614    8.45489380407385   -0.26661718467843
C         1.56443718590900    7.53458418916575    2.02373514725677
H         1.53419541834408    7.40742832897532    3.10430144646278
H         0.82876410545961    6.87035935266621    1.57332239051572
H         1.29499117834820    8.56140850376274    1.78937857826699
C         3.25214385263033    5.73573878700679    1.77250638548907
H         3.16408684229935    5.50901971654220    2.83286488854455
H         4.24398801500560    5.45298906432340    1.42608593890509
H         2.52404117389317    5.12580822767841    1.24016446059995
C         6.96164958440231    7.86443430726211    4.50927554167226
C         7.79490693258896    6.84933629329991    3.71430366082497
H         8.55489992462939    6.40063014866329    4.35176824892459
H         8.28919818983832    7.34253448089618    2.87976582305176
H         7.17044259654222    6.05445942070355    3.31647997295210
C         6.24933615137475    7.15253276625787    5.66814062730264
H         5.64367372056446    7.86202904305434    6.22852805131131
H         6.97750105342880    6.70807705517977    6.34450633980055
H         5.59694712521815    6.36405419200842    5.30403651856294
C         7.91940978722337    8.89886925437370    5.10779412815644
H         7.37790517307489    9.63730670714046    5.69508771943730
H         8.48191420439630    9.40700259851594    4.32779554613231
H         8.63043474798576    8.40094686828213    5.76491646143510

