132
CSD_code = WOFPEO | q = 0 | S = 0 | Stoichiometry = C67H60P4W | MND = 6
W        15.15430498105113   12.80103072935050   -0.10384306760801
P        14.23887281523879   10.86161159343668   -1.15642206218555
P        16.37635645961039   11.10827667941182    1.09121959099210
P        16.44568453408782   14.65801417621403    0.69712473319713
P        14.21242390039678   14.55820463793232   -1.45616581224552
C        12.47270981244541   10.39826187948618   -1.22531899477533
C        11.54171762767114   11.42286378695411   -1.11555639578897
H        11.89762108996782   12.42512451625222   -0.91817935099860
C        10.18841463989662   11.16443705543029   -1.24100971582050
H         9.47755199984321   11.97510188871965   -1.16591792559087
C         9.75392645537406    9.86886526808860   -1.46498988402002
H         8.69834245461102    9.65854717871130   -1.55771061234248
C        10.67685987415552    8.84071998122013   -1.57345320175900
H        10.33830235793806    7.83001241849106   -1.75226786450406
C        12.03096014110307    9.10142924716258   -1.46526822148436
H        12.73892033679106    8.29277656639460   -1.57251960376360
C        14.59615525830649   10.73426926883860   -2.94175288563269
C        13.79588268264386   11.51401762427695   -3.77445972820606
H        12.96147293991953   12.05085503958912   -3.33972617047772
C        14.06114370915685   11.60517205121162   -5.12591806968009
H        13.43181920014878   12.21150930896439   -5.76210337833424
C        15.14088189730410   10.92324893214260   -5.66550804678952
H        15.35659911687876   10.99728401709259   -6.72148844353169
C        15.94362538670667   10.14989893312766   -4.84545625438908
H        16.78783299616565    9.61853335090535   -5.26264504086961
C        15.67654464578131   10.05421304563376   -3.48992545185500
H        16.31924914316022    9.44826219443696   -2.86792044255468
C        14.98922757341641    9.31277264369553   -0.45160363235163
H        14.37036782709301    9.04670045435530    0.41637623291371
H        14.96253118563569    8.48787163218810   -1.17159018211873
C        16.41103508196847    9.59870136918239    0.00694344659586
H        17.04415180845440    9.83828376366430   -0.85024177004382
H        16.83937522560479    8.74198269962447    0.53894692847971
C        15.90633396667163   10.28553259111694    2.65798704141998
C        14.72880356761657   10.65290867883066    3.29279649986530
H        14.13303935783829   11.44710103482158    2.86345389704526
C        14.32617764758790   10.01532332094737    4.45368818648578
H        13.40610049224444   10.30980348294863    4.93773815015546
C        15.10375515918713    9.00325106861210    4.98931433538546
H        14.79468079887537    8.50258800982013    5.89531773122113
C        16.28429377047553    8.63297961134896    4.36274985185649
H        16.89414198355702    7.84577000463597    4.78283707630439
C        16.68539181954296    9.26766149628868    3.20271686011755
H        17.61493429358065    8.98462281036271    2.72641715749360
C        18.16039368586667   11.37078854430141    1.36901309817652
C        18.65478588148648   11.64198109330226    2.64270062015755
H        17.98103158448984   11.66244219909061    3.48853326724862
C        20.00499728345341   11.86771037862375    2.83602474699380
H        20.37764549899709   12.06420665392663    3.83143115043300
C        20.87767636939747   11.83659513398512    1.76160347658388
H        21.93493173408416   11.99536020636580    1.91607639339254
C        20.38728256867690   11.61645318875423    0.48516885063501
H        21.06036292824535   11.61869468764628   -0.36013177488714
C        19.03757609067295   11.39732147979079    0.28833010617407
H        18.65877614168868   11.26178959764377   -0.71456277693683
C        18.20120192599696   14.75766850579734    0.20172198140082
C        18.47500724888432   14.75646513072118   -1.16422601509185
H        17.65601249368776   14.70844951444267   -1.87040353711166
C        19.77714511864039   14.79894062521484   -1.62054117220198
H        19.97536739390378   14.79809042724568   -2.68319790682973
C        20.82695454249222   14.84537627196823   -0.71663709930892
H        21.84677220663668   14.88676695656134   -1.07116126637264
C        20.56367054009004   14.83065569363837    0.64140314484564
H        21.37803030784517   14.85941281754444    1.35097140110291
C        19.25959548121427   14.77623928303082    1.10199893579739
H        19.07167011369607   14.74718198833502    2.16565788171576
C        16.60288157343040   15.02222394336217    2.48101429941123
C        17.08656702639956   16.22432627682862    2.98853336066582
H        17.39868060757752   17.01322074273323    2.31723837173776
C        17.19225658616249   16.40602945371660    4.35580051823174
H        17.56575408528569   17.34260912339920    4.74516569152457
C        16.82539526035201   15.39256014465987    5.22719426550259
H        16.90806499892575   15.54331996379104    6.29359932834353
C        16.35941200166267   14.18745018255833    4.72851686581953
H        16.07709963713844   13.39127726081572    5.40267669406594
C        16.25105418224516   14.00745591689807    3.36193087888813
H        15.88101415515088   13.07521348804581    2.94707686190798
C        15.85836270008595   16.27833874306632   -0.03355471870838
H        15.94567491341362   17.08202732690039    0.70247903526921
H        16.50717317687533   16.51363242003465   -0.88483561970539
C        14.41879497915359   16.14117217964356   -0.49848048908082
H        14.11048014035364   17.00677018349519   -1.09288711070962
H        13.76138240585237   16.06421439341368    0.37246026282266
C        12.44378413544778   14.71674735378007   -1.89331544148806
C        11.51699225979780   14.93619197101700   -0.87724182016829
H        11.85819541825530   15.07243912305801    0.13739297452465
C        10.16310818261413   14.96491759322785   -1.15317014904435
H         9.45877971435188   15.13853049901212   -0.35238471731880
C         9.71380780655785   14.76452374301815   -2.44840850694930
H         8.65572338275904   14.78281981222475   -2.66611691863900
C        10.62719630019838   14.53740638215699   -3.46424626183670
H        10.28165969649316   14.37855724851021   -4.47590988522687
C        11.98315050475993   14.51109807258329   -3.19088199882599
H        12.68925514273016   14.33875824322007   -3.99151728399774
C        14.96509368659191   15.02482164451628   -3.05925028506726
C        14.64747492212181   16.21706939213738   -3.70714756130266
H        13.92847310906147   16.89685171914425   -3.27014425624203
C        15.22914387883366   16.52637941710948   -4.92199713858873
H        14.97914150898573   17.45437399044629   -5.41657870199974
C        16.12491455225997   15.64732706838895   -5.51138471067219
H        16.57485316130839   15.89296133503560   -6.46249447682384
C        16.43297160064341   14.45369666014435   -4.88231947767346
H        17.12107197977933   13.75842104392465   -5.34153418952546
C        15.85515876489048   14.14532602663529   -3.66307332183655
H        16.09213603722670   13.21539244698568   -3.16455100061000
C        13.61422259019695   12.97214701609568    1.05146166478533
C        12.44559868490115   12.74226122858506    1.72484055768990
H        12.14068772491990   11.69165403018954    1.68022840554876
C        11.57881619118618   13.56929229281243    2.41293845292772
C        11.84530871573939   14.98517124606234    2.61940244862138
C        13.15130098896340   15.46963265121026    2.73118370853694
H        13.97465315901992   14.77273838023629    2.67160178079727
C        13.39707660106058   16.81314781417056    2.93473517959977
H        14.41709648392519   17.15610711494867    3.04192802499320
C        12.34687695526836   17.71369780202830    3.00938481828199
H        12.53895945208458   18.76518912932260    3.16628312333150
C        11.04519608474378   17.25279792581398    2.88059039141867
H        10.22003190793659   17.94962859711568    2.92797729532341
C        10.79453086947476   15.90915685968663    2.69386682548205
H         9.77599883864526   15.56254076584133    2.58837803513559
C        10.35226001149341   13.00518428411234    2.96954192229392
C         9.87135518708421   13.43893723058639    4.20978239782993
H        10.41539017194599   14.20148482388557    4.74988705401352
C         8.73036328735022   12.89127294479684    4.75986332392926
H         8.38018210093137   13.23762293590696    5.72228335930274
C         8.03597327068472   11.89720983726802    4.08807202285457
H         7.14105655423910   11.47174409631690    4.51837378878426
C         8.50057177637908   11.45489303015375    2.86036636124950
H         7.96481543194466   10.68266843806965    2.32572860272378
C         9.64339131758446   11.99854105801152    2.30757330631583
H         9.98000379414949   11.65501106759200    1.33943557171955
H        16.44984250837021   12.48612845080835   -1.16550080994456

