81
CSD_code = WOFPAL | q = 0 | S = 0 | Stoichiometry = C35H39N3NiO3 | MND = 4
Ni        1.33954701941705    8.73965062218534   13.61835389380969
O         1.12068486299340    8.17409860643641   15.38408702070248
O         2.04704879740130    6.84518025083266   16.89903345310102
O         1.11598354492335   11.13384678317941   10.55289771478141
N         2.81655861514512    7.64383652810649   13.58780860085956
N        -0.17081100136020   10.01901307626942   13.73197778138656
N         1.59311472464880    9.29387694917833   11.86464089064005
C         2.07578313835166    7.46829991287451   15.85762438211099
C         3.32926714681104    7.45609684133902   14.94040749953975
H         3.86742755740274    6.51028713866523   15.04409938408208
C         4.27667053102703    8.64217901370997   15.20542745099696
H         3.71538819510862    9.56235103845283   14.98553047106140
H         5.06898496244744    8.56691285598762   14.45753159637653
C         4.90985768300552    8.77070702916400   16.60416141560837
C         6.18973115782503    9.62197204318745   16.48708886008587
H         5.96012515084854   10.55463990791082   15.96500770460399
H         6.51537520206080    9.88264033283227   17.49663637813613
C         7.34381861781009    8.91202152913166   15.78131693354294
H         8.22737337552478    9.55431869926461   15.81112900950570
H         7.10449621938791    8.74065101893964   14.72948219376908
C         7.65031228069726    7.57488956128359   16.44600493234028
H         7.99185429841269    7.74774043815241   17.46915690021337
H         8.45183274986585    7.06617926185334   15.90547669811253
C         6.39915327305765    6.70390192555966   16.47105962582799
H         6.09861284230869    6.47984998418864   15.44629212834008
H         6.61824898500991    5.75422285435503   16.96402910357978
C         5.27667049579397    7.41435079262296   17.22145978572448
H         5.61150218610468    7.59212743884631   18.24646639214922
H         4.38713737616968    6.78698885077046   17.27798573425660
C         3.93698336651015    9.49360759230022   17.54284238473769
H         3.69112719336648   10.48219091950066   17.15747778456066
H         4.38166148794257    9.61662730323109   18.52802063202768
H         3.02064386359469    8.92402704535236   17.65876452719628
C         3.42694425516969    7.15552014456999   12.56342167824160
C         4.64246878047255    6.31419927645669   12.73315347810642
C         5.89128314525730    6.85182416750786   12.44171357936698
H         5.96096319756330    7.86347623578210   12.06814031134154
C         7.03391794007822    6.09390669871288   12.62870259356422
H         8.00114451325354    6.52073900563620   12.40952889290168
C         6.93682933958690    4.79410941613813   13.09639870831130
H         7.82915664675525    4.20534432088324   13.24528881308469
C         5.69339497092107    4.24936417961483   13.37166783918216
H         5.61356688695824    3.23470132781199   13.73134836792344
C         4.54803180535990    5.00533697237775   13.19489702357766
H         3.57673659671944    4.58327500865403   13.40927789954790
C         3.00116509790183    7.42088990366492   11.20497574648900
C         3.48690939739892    6.58944490957746   10.18557834471393
H         4.13287658542474    5.76556027940400   10.45121001151058
C         3.14339496637882    6.78369773779929    8.87029929835714
H         3.52118727477809    6.12460204333081    8.10386600558729
C         2.30188052219003    7.84121726908153    8.54445712784271
H         2.01998590782046    8.01000990600355    7.51572063020364
C         1.81523062403495    8.67624591646325    9.52115283460802
H         1.16791588409939    9.48979213822753    9.24330199380881
C         2.13303839481128    8.49742616464745   10.87824035145440
C         1.01222952344166   10.48526679965867   11.58018947645756
C         0.19558862923336   11.05488551206230   12.74403661485660
H        -0.70728815958830   11.51240048940236   12.31596790357091
C         1.00045818076485   12.11841238632176   13.52558045397743
H         2.00949325185730   12.22121858189485   13.12760069088750
H         0.51222908195203   13.08972333202976   13.45124393458032
C         0.99356351148192   11.60619715343630   14.96862955838393
H         1.86062605808106   10.96154720766275   15.14959969733973
H         0.98752004923743   12.40652033796921   15.70512990771757
C        -0.26049040790835   10.74806156768643   15.00518152100935
H        -0.28367209706732   10.05283222528173   15.84395605175385
H        -1.16230885453570   11.37533055333087   15.01307266213898
C        -1.43224356731835    9.33115613144563   13.40588502973247
H        -2.19485271284980   10.06452378746623   13.10832529727397
H        -1.76590617063311    8.81811384019355   14.31248660108873
C        -1.20033249969357    8.32013267654149   12.31241924178590
C        -0.54965730795841    7.12389568503761   12.63122938715052
H        -0.36071028550028    6.87153844533713   13.67329391733014
C        -0.23908016224891    6.21559081509186   11.63090637329352
H         0.25858985881406    5.28993833401285   11.87981790199263
C        -0.57541626498192    6.48790901993323   10.31475905779906
H        -0.32395397777263    5.78389110367333    9.53600341977561
C        -1.23598467086852    7.66192395900357    9.99996675658542
H        -1.50542168176116    7.87260652876083    8.97609210817422
C        -1.54320831322414    8.57731430368231   10.99341409260665
H        -2.04665964350594    9.49830205506992   10.73629154924989

