132
CSD_code = WOFPAK | q = 0 | S = 0 | Stoichiometry = C67H60MoP4 | MND = 6
Mo        6.21814425397199   13.30792110040384   -0.08685468223938
H         7.46452091995339   13.60278890080711   -1.11492517732709
P         5.31820610141189   11.57705941046796   -1.42158863261641
P         7.50371534765747   11.49257252631447    0.70131279684820
P         7.46515303045231   14.96385509838908    1.04094980584719
P         5.34808087445111   15.21064216337849   -1.15574448488122
C         5.48561238084175   10.00010081112428   -0.46080390154600
H         4.82605032056319   10.09642251681213    0.40759503893071
H         5.16711709936273    9.13201336735617   -1.04696702779436
C         6.92043075220622    9.85910923180170    0.01000523152962
H         7.57024055485361    9.60459201177828   -0.83632879688365
H         7.00189909069026    9.07036971559561    0.76346315725844
C         6.08425079669427   11.10068333432210   -3.01306431241511
C         6.93201661850012   12.00252790467181   -3.64438813805530
H         7.13572162162052   12.95119910960674   -3.16791168447899
C         7.50895639801659   11.69467020612372   -4.86416471600925
H         8.16272058812937   12.40903194958725   -5.34386780053460
C         7.24417016036916   10.47750846073739   -5.46697886756461
H         7.69489213874937   10.23125475932224   -6.41756730870488
C         6.38911238654855    9.57598457413618   -4.85179616974263
H         6.17079300164481    8.62951025967697   -5.32605181202417
C         5.80599273452076    9.88600337017136   -3.63789775791036
H         5.11566033985818    9.18701228539414   -3.18536566113814
C         3.56330441613322   11.42646856265956   -1.90537915498809
C         2.60650424954001   11.19245810999688   -0.92081150519903
H         2.91652030578063   11.04462063032428    0.10258377574678
C         1.26166071486863   11.16209240663827   -1.23844827442239
H         0.53309816474799   10.97761357887125   -0.46188260855032
C         0.85129926940700   11.37331131062016   -2.54469060282679
H        -0.19967776245800   11.35382737690708   -2.79447113063676
C         1.79476227392256   11.61156700397868   -3.52999380149792
H         1.47976053579046   11.77728992356889   -4.55056135651960
C         3.14163848066221   11.63966172247841   -3.21520520672734
H         3.87179961520675   11.82201557050133   -3.99171971990748
C         9.25546852326524   11.37043439930896    0.20099243652015
C         9.51749810478126   11.35640809860020   -1.16716926055300
H         8.69274767991670   11.41982313798144   -1.86608710046478
C        10.81347177457668   11.27637110466847   -1.63578352410633
H        11.00098953929665   11.26530466774693   -2.70038266955609
C        11.87002335307144   11.20606331909634   -0.74142324690720
H        12.88512635906270   11.13533244209180   -1.10481534428996
C        11.61922846784203   11.23389255127990    0.61867375339459
H        12.43891230567465   11.18665830872113    1.32118946590325
C        10.32136864349369   11.32460537766121    1.09144480377882
H        10.14633442998531   11.36329365352706    2.15695657397026
C         7.67811016531154   11.14948329772327    2.48490987466998
C         8.16875795427539    9.95196108464628    2.99913416262440
H         8.47535332743538    9.15691506709247    2.33229627099631
C         8.29012844532160    9.78288766630390    4.36651407718269
H         8.66887328455451    8.85001387874668    4.75995734074742
C         7.93314640715253   10.80414027635529    5.23320493798283
H         8.02823273972550   10.66331591494830    6.29997988511130
C         7.46205498786459   12.00444241233602    4.72843064521393
H         7.18840763024559   12.80763488389996    5.39813905489146
C         7.33760455911836   12.17141026579810    3.36120342997236
H         6.96348496921563   13.10003801339252    2.94263473919884
C         7.54138470729437   16.46343122340097   -0.04384120418593
H         7.97986176774737   17.31536687578021    0.48869533273502
H         8.17727100633078   16.21069913022233   -0.89554807992452
C         6.12689506460724   16.76433278759048   -0.50664711759352
H         6.11081166716785   17.56783210356054   -1.25181322096619
H         5.51682070103244   17.06356206337047    0.35872336588904
C         7.01476024829504   15.82012385566031    2.59448575876998
C         5.82297782454578   15.50279199227949    3.22932911250938
H         5.20360664736266   14.72051721835767    2.81199658969822
C         5.43547645757740   16.17120355173812    4.37814245002065
H         4.50399450703797   15.91402175929659    4.86203639827868
C         6.24271470449607   17.16553789206770    4.90236178160580
H         5.94588079329664   17.68978503784269    5.79911435535162
C         7.43750009908375   17.48733159732066    4.27580444112045
H         8.07094792226663   18.26069397707576    4.68670650811097
C         7.82319078567741   16.82207024769269    3.12800671066340
H         8.76399921475333   17.06820304216750    2.65284323929408
C         9.24210586689441   14.67970371831126    1.32933337614314
C         9.73635324401838   14.43059912352216    2.60752460731577
H         9.06370246374456   14.42523300928750    3.45458192174672
C        11.08656719769253   14.20756227111727    2.80519410974645
H        11.45810677105461   14.02670738876358    3.80406714350035
C        11.96054363905360   14.22361496917203    1.73168278560250
H        13.01788931186681   14.06877981824885    1.88974377416004
C        11.47110124433403   14.42432136382524    0.45176992595435
H        12.14494431305477   14.41160011658988   -0.39288900148713
C        10.12112697517643   14.63815638991413    0.25058352358173
H         9.74430500374512   14.75938681826465   -0.75534531071923
C         5.65233601677753   15.32106652164444   -2.95019704929905
C         6.77660317112061   15.91474236544032   -3.51220525566522
H         7.48280440335567   16.44925281800328   -2.89328842195858
C         7.00706356546779   15.82277732769932   -4.87426926954483
H         7.88513429102326   16.28785153272163   -5.30074532373030
C         6.12355143162004   15.13673966387704   -5.68915861211530
H         6.30972015075232   15.06399692682955   -6.75085933211240
C         5.00017199934229   14.54206796606433   -5.13669552220191
H         4.30594906761978   14.00613344255297   -5.76867483438961
C         4.76932984888732   14.63168495796430   -3.77828151704107
H         3.89632778787821   14.16473571004943   -3.33940451765512
C         3.59085139568061   15.70285655134892   -1.18255051160065
C         3.16275707259575   17.01126803360252   -1.38576689898089
H         3.87844918181600   17.81414432313541   -1.48436476949290
C         1.81104623258260   17.29295833897829   -1.46915490929054
H         1.48505722199052   18.31250459599484   -1.61907267081031
C         0.87450080874666   16.27592242158089   -1.37464302047344
H        -0.17909642944649   16.50290087303990   -1.44934085280358
C         1.29400557075552   14.96951303308732   -1.18881352340274
H         0.57338071012700   14.16606291247355   -1.12721891610571
C         2.64505748159521   14.69013997513211   -1.08613132793088
H         2.98696206728241   13.67736906245646   -0.92089826525895
C         4.70893482497029   13.14187897042579    1.03870008441809
C         3.53811423134802   13.35186236626321    1.72270996407653
H         3.22445628145150   14.39913280837007    1.67906952534139
C         2.68415169710321   12.51360883770928    2.39973326425714
C         1.44395239500540   13.04793213983637    2.95915665130083
C         0.95571224363808   12.56712945016642    4.17838556311096
H         1.50428996376462   11.79548570372634    4.70060355318021
C        -0.20072746070107   13.07960877014122    4.73078675858564
H        -0.55729037518539   12.69763859344720    5.67706955989684
C        -0.90281713684344   14.08221505637059    4.08047742348768
H        -1.80992310184274   14.47962979910475    4.51188517762272
C        -0.43134046508027   14.56938703141195    2.87260401677055
H        -0.97355045162666   15.34829274186421    2.35477222164502
C         0.72746435341892   14.06194971675774    2.31827981122619
H         1.06944828991558   14.44012379553558    1.36520660005784
C         2.96354545717560   11.09432777691591    2.59608930522126
C         1.92575782542392   10.15541474316932    2.57326699366929
H         0.91204537458060   10.49034364030060    2.40255907906128
C         2.18578626765145    8.81145135759049    2.74853344218391
H         1.37224970409212    8.10034650865923    2.71975723882564
C         3.48266117648371    8.37054249419774    2.96413285613082
H         3.68162397522078    7.31884178743703    3.11068502661662
C         4.51908182082537    9.28904852035014    2.99310890637537
H         5.53379535854162    8.96105702317604    3.17163227750769
C         4.26454439434232   10.63353591247030    2.80178553272750
H         5.07517873332041   11.34606667130061    2.83022139138621

