99
CSD_code = WOFQIR | q = 0 | S = 0 | Stoichiometry = C49H43Br2OP3W | MND = 7
W         4.82204920939943   15.77021168719305    6.56751469504712
Br        6.23402137220251   13.95849996179769    7.74476319257884
Br        5.72890394910659   14.96461417405289    4.29301397854921
C         3.27422373266901   14.57643388199633    6.30357332278281
O         2.27303285661272   14.01197490673599    6.17818715069742
C         4.25518897784946   16.93582347589383    8.21652671860200
C         3.42309136049385   15.90257277377860    8.13465961307035
C         4.47664475995878   17.54160552692474   10.58380362208790
C         4.64455458648606   19.28116870735242    8.93440926856944
C         4.45580493482913   17.93442876624616    9.24179273127878
C         4.70320738113460   18.47021850993625   11.57849918846347
C         4.85934267395208   20.20679027220446    9.93594429215157
C         4.89912675598877   19.80474431779528   11.26012277737868
C         2.34307217730626   15.38251516610547    8.93551496911748
C         2.25700575732316   14.01712882248673    9.21895801557528
C         1.23140157342671   13.53627526793301   10.00928846781188
C         0.27383477018212   14.40103864128140   10.51426610120643
C         0.35548348192451   15.75800955179672   10.24245258995950
C         1.38438407714985   16.25135979144536    9.46585063263871
P         6.79040898745905   17.22999170064367    6.49070219322395
C         6.38468185907982   18.73342003336839    5.46344506492782
C         5.34897838622663   18.44497621601775    4.37809883275485
P         3.92544038487630   17.48210240496077    5.07256240455142
C         2.97917733092932   17.02914546705297    3.55494567677380
C         2.58552246403120   18.20556247099622    2.67313872333170
P         1.58136933759178   17.55995407056946    1.22466650086512
C         7.46329576340945   17.98703788651423    8.00696499477396
C         8.08376042477210   19.23163668293635    8.00944915988621
C         8.58159735602664   19.75578131037630    9.18776295275213
C         8.48211959865751   19.03929361187307   10.36865540019919
C         7.89125520405321   17.78807836041677   10.36756897160287
C         7.38114210726234   17.26529658816242    9.19375961753130
C         8.34924637639029   16.61911579920455    5.76348409324423
C         9.17674476955341   15.85076501600516    6.57958935711428
C        10.33328078458530   15.29469516333550    6.06804508671497
C        10.67099764842236   15.49361592297272    4.73962535641535
C         9.84293699718985   16.24240823534673    3.92131033619861
C         8.68198635709424   16.79925757569140    4.42518498923385
C         1.76923497340028   18.96680583612002    0.06839315496968
C         1.76043268062018   20.28955276517625    0.49737676149045
C         1.81918957358030   21.32185188975546   -0.42220983061996
C         1.87008301950479   21.04701202021020   -1.77797949268838
C         1.85094327835528   19.73192746547917   -2.21432598206232
C         1.79200371366570   18.69942499079239   -1.29843119730648
C         2.88911061537720   16.44866582680187    0.56812444916582
C         2.66236767851621   15.07849994280637    0.62237209684172
C         3.64756136643508   14.19048474838568    0.22854762732623
C         4.86494819646693   14.66768391654420   -0.22421589167591
C         5.09210308666494   16.03308527060110   -0.29191719068628
C         4.11124185397650   16.92276797494826    0.10258553347069
C         2.80296351825412   18.69902924315631    5.82636866034740
C         1.67231893142683   18.15525264489949    6.43348961635073
C         0.74462640284634   18.97423098650398    7.04686510610239
C         0.94522738271757   20.34575063607766    7.07310171003116
C         2.06656999265214   20.89213471724129    6.47355464469217
C         2.99302049840331   20.07531747171419    5.84738776811565
H         4.33009727702134   16.49891494223789   10.82881233868968
H         4.59807456700948   19.60050194002914    7.90257450210032
H         4.72498316816444   18.15239128004833   12.61063688185860
H         5.00148451153481   21.24735420101191    9.68133121609060
H         5.07782879061106   20.52859153221541   12.04102547333766
H         3.01263216907221   13.34419590825642    8.83670720379894
H         1.17631810687948   12.48036820799083   10.22857929076674
H        -0.53222030919933   14.01993250607013   11.12353698624722
H        -0.38441907254388   16.43554864232996   10.64402043271222
H         1.46149744737169   17.30997045014165    9.25906450424588
H         5.97936735342351   19.46670802024617    6.16861739081995
H         7.29741968777183   19.14701594689774    5.02334406033508
H         5.77372408879380   17.81335804943461    3.58796625504922
H         5.00454757288143   19.37539057413907    3.91621808579910
H         3.59003549418137   16.31464351498645    2.99190683836336
H         2.08238778067117   16.49744386420987    3.89760007484176
H         3.46544818057920   18.72763574594147    2.29011896205157
H         1.96716319901924   18.90985414050219    3.23715219694267
H         8.18507130631620   19.79595766511418    7.09407649350828
H         9.05353267981015   20.72761171712677    9.18304179183342
H         8.87031678010944   19.45466337812534   11.28652667499050
H         7.82027786201906   17.21879491587461   11.28192736057628
H         6.91203403203811   16.28949043895826    9.20645285861815
H         8.90894786048556   15.67957303956435    7.61333951770697
H        10.96556967438743   14.69683446484797    6.70683737377128
H        11.57262368294267   15.05503935460267    4.33901135429767
H        10.09313083218609   16.38461005517185    2.88046903919813
H         8.03369157194401   17.35358698237533    3.76259172563113
H         1.70530876565160   20.51797703888122    1.55227666328076
H         1.82127551453899   22.34638487009399   -0.07806548551611
H         1.91682814242821   21.85503665096335   -2.49299669826469
H         1.87891527565851   19.51212883456337   -3.27161421560863
H         1.77297378762173   17.67222046032123   -1.63687700254181
H         1.70985359502167   14.71515958192503    0.98296022340323
H         3.46835082286628   13.12741036297769    0.28223936671767
H         5.63897058262589   13.97742041298851   -0.52240729928464
H         6.04154794934248   16.40486213935941   -0.64900280319221
H         4.29075211988733   17.98819145918454    0.04364757389680
H         1.52960714462653   17.08029839915130    6.41980843845316
H        -0.13281044113600   18.54485972831857    7.50698576553359
H         0.22720962037794   20.98803903786717    7.56011922155175
H         2.22294193516725   21.96080407935335    6.49171377670913
H         3.85884560136477   20.52209839904954    5.37973700709762

