75
CSD_code = WOFQUD | q = 0 | S = 0 | Stoichiometry = C34H33I2MoO2P3 | MND = 6
Mo        6.22081671271070    8.11843083630317    4.96628670458827
I         3.69544704469591    9.28754028461335    5.13957604360263
I         6.44641173720110    9.06838534583119    2.31662162063387
P         5.90230654435907    6.86522691920304    6.95696803043459
C         6.98012114396840    5.33941045739020    6.91764242887947
C         8.30550011755524    5.67223008772874    6.24667823218733
P         7.98063019363740    6.57319924530450    4.64569853544907
C         7.76389799079934    5.11246493626376    3.51821439957989
C         7.01488573701397    5.49670618683889    2.24709756453364
O         5.16269665779285    6.39080203640146    4.11724126603237
P         5.26566694723091    5.77507328857820    2.75811683131545
O         7.18375554198846    9.18721608459018    5.72921019385564
C         4.39313901570161    6.15006203383974    7.68551225104879
C         4.33786208394460    5.83414151339426    9.04032040593073
C         3.19045687727460    5.27627084503823    9.57103327211747
C         2.09432118047894    5.03172052288491    8.75807332716644
C         2.14309611355744    5.34938220784940    7.41129825454902
C         3.28862868194935    5.91032868930815    6.87569076164629
C         6.56160330805334    7.85942678703361    8.31702031924449
C         5.94848110889262    9.09855585307278    8.49602193599025
C         6.39070860289588    9.96031464543380    9.48094753113166
C         7.44996908698760    9.59533165009796   10.29678936773170
C         8.05548111007499    8.36215211823886   10.13050486387882
C         7.61487588464398    7.49266446675600    9.14702568823888
C         9.64189465670063    7.18813686736357    4.26693407496537
C         9.81825303172331    8.56595944293085    4.19653300942850
C        11.06814508458229    9.09318630790309    3.92347792654989
C        12.14698353383992    8.24911935536237    3.72240320242294
C        11.98045957351877    6.87569913994970    3.81205419787453
C        10.73523436745885    6.34327628733943    4.08580905804423
C         4.60730741502120    4.08468948057304    2.88593574578089
C         4.43120552208082    3.31867442144430    1.73999107625123
C         3.92670215764098    2.03618258701676    1.84150332354341
C         3.59228868117712    1.51790195197403    3.08385981887171
C         3.75735859395358    2.28337682043050    4.22589416683910
C         4.26419854261002    3.56717922189879    4.12691095339312
C         4.24945632201173    6.56019368473783    1.49009143615490
C         4.59678830995543    6.57574267753280    0.14589685522105
C         3.74414242064220    7.17415700147303   -0.76210369341895
C         2.55744931536480    7.74814937018277   -0.33220111454164
C         2.20881614462672    7.71830186765467    1.00800306175689
C         3.05039646557002    7.11332652097285    1.92252307824831
H         7.11193139011530    4.93585699488186    7.92674696806909
H         6.43221971552329    4.58668811762729    6.33384951167397
H         8.91561313777205    4.77743250813692    6.08105353506837
H         8.87741867047849    6.37796083762702    6.86242740128574
H         8.75096965492122    4.70855604069556    3.27335709184710
H         7.19921067211508    4.33872418924871    4.05761195077471
H         7.03308888006699    4.67872010011562    1.52169494039225
H         7.45014556221812    6.38424248615601    1.78148757215309
H         5.19038890451938    6.03850141369759    9.67430316412361
H         3.14773970969140    5.03649692121173   10.62352851382809
H         1.19778856606494    4.60125402761520    9.17894242882782
H         1.28615402078101    5.17053956194198    6.77900679198189
H         3.31920092883127    6.17827550359237    5.82737177608928
H         5.12271239753173    9.38695753750256    7.85886885779171
H         5.91353293511908   10.92051094797440    9.60708953945084
H         7.80476255931377   10.27155539186306   11.06040451170289
H         8.88030210110993    8.07253391035928   10.76615535452373
H         8.10479733936398    6.53498093831653    9.04011207938316
H         8.97443503147942    9.22305511820810    4.37177845306996
H        11.19673342173964   10.16308378358436    3.86440970009203
H        13.12160913850665    8.65825750171131    3.50167919276462
H        12.82505979674113    6.21707864061102    3.66923456452391
H        10.62266614955485    5.26997818737935    4.16746921556114
H         4.68063158737883    3.73716892559186    0.77459974801020
H         3.78868796630262    1.43977938130095    0.95209404696200
H         3.19560446659758    0.51661308218204    3.15941189030909
H         3.48887521075573    1.88406436197605    5.19285918635250
H         4.38600816603294    4.17767091426928    5.01216509370666
H         5.53888272865573    6.15884173511693   -0.17911680482189
H         4.01347533615873    7.20645376138202   -1.80690318640493
H         1.90654975491325    8.22946837860297   -1.04618891603480
H         1.29178565159346    8.17480828054376    1.34668378648586
H         2.79587888617192    7.09380047017984    2.97440603329155

