107
CSD_code = WOFRAL | q = 0 | S = 0 | Stoichiometry = C29H64N2O7S2Si2Zn | MND = 4
C         1.68799490666799    9.15404168343331    3.19967820299693
C         0.90970463547463    8.02963368735036    3.89147744019063
H         1.17769862403230    7.06428543935244    3.46776192539099
H        -0.15816821679072    8.18221085616350    3.75893310587126
H         1.13044501340272    8.02815889415803    4.95676175627012
C         1.42063536815991    9.13567413951905    1.69553344376008
H         2.02609137483200    9.90117716980803    1.22157044151412
H         0.36900757365243    9.32137367979235    1.49377496646751
H         1.70102619382767    8.16980936069925    1.28200501197626
C         1.29164532978091   10.50038324623866    3.80045834017166
H         1.53858572089222   10.52098140232925    4.85915670075564
H         0.22431043740916   10.66795480741763    3.68010622262598
H         1.84093211593467   11.29188050704214    3.30345162979919
C         4.50218170448423   12.19774801973051    1.67461591650613
C         4.01248382432006   12.44605754037266    0.24490347267590
H         4.34708543234251   11.63686592056136   -0.39890315680871
H         4.40454572677386   13.38737703152756   -0.13004787541182
H         2.92558922276522   12.48073734577139    0.22300278942860
C         4.03360922366710   13.31533830591829    2.61037267100923
H         2.95493549176890   13.43927842135740    2.54133682735113
H         4.51409687020092   14.25436580771434    2.34934996882710
H         4.28965993779907   13.04764613933355    3.63139670113309
C         6.02350514940554   12.09736167955755    1.70101516096705
H         6.36240659934389   11.96670814304929    2.72410808101126
H         6.46860879938923   12.99691349982995    1.28419356588769
H         6.34434982639471   11.23188653804963    1.12812544577672
C         5.23628574791415   10.39421053270458    5.80712126482929
C         4.94286020733621   11.63599109671774    6.65863962772787
H         5.43787522789166   12.50335990565308    6.22907261211641
H         5.30181602155416   11.49078746548148    7.67356662145510
H         3.87249453940171   11.82674463665652    6.68233331217498
C         6.74122977531633   10.13516651187923    5.74870829795864
H         6.94922638844323    9.26664763369976    5.12666976636894
H         7.12901568640539    9.94505383738731    6.74507350301241
H         7.25122372600507   10.99532875798405    5.32178731967848
C         4.50808053935745    9.18025412143517    6.38101430876621
H         3.43275235543790    9.31636763800666    6.29407585845481
H         4.76988428250663    9.04580026716016    7.42686633714631
H         4.79523366465650    8.28376807651989    5.83567580785458
C         2.86467007005218    4.36492668121158    6.44663987834814
C         3.03165175551330    3.39677709610325    7.61384690667784
H         3.79519417768622    2.66235880959400    7.37898089242235
H         2.09146868561276    2.88849696465066    7.81396147989604
H         3.33834486754163    3.93776950825151    8.50448171894682
C         2.46147333935197    3.59206206466979    5.18939028777651
H         2.27292668990346    4.27329709878490    4.36358697551197
H         1.56428845220968    3.00812901971333    5.37761290146638
H         3.27410276645660    2.92827807210519    4.90976602598035
C         1.81318000093281    5.42219318203883    6.79497737778621
H         2.15253302325200    6.01556261209150    7.64064112138065
H         0.87143652792533    4.94445090758554    7.05145354107615
H         1.65024299394498    6.08591090363636    5.95086410653934
C         6.58700398132848    2.22584053725045    5.05808328544417
C         8.01596046142527    2.72975657737770    5.23684999124102
H         8.19615138601120    3.56154056738681    4.56201942014040
H         8.72759986771666    1.93513134093902    5.02836616051418
H         8.15431424153767    3.08138028134132    6.25413400757767
C         6.27590938750758    1.14202700083424    6.09308070378987
H         6.33576299531909    1.57682191315733    7.08667085297670
H         6.98681897401188    0.32416196818122    6.01219091178718
H         5.27069095349252    0.75499076784572    5.94053350919686
C         6.39355891838291    1.68633366995660    3.63748334110103
H         5.36349757917535    1.36790114502942    3.49643461081324
H         7.05398705712915    0.84108867783143    3.46369337760791
H         6.61718767141956    2.46982747740301    2.91882977607860
C         6.54620742603253    4.58729455836850    8.87958976185704
C         6.27043371431900    3.59307501107731   10.01256071105897
H         5.20220417642915    3.41419400556853   10.10633188911780
H         6.64882703496808    3.98329911004860   10.95316657225184
H         6.75965042087508    2.64538411075546    9.80095095624773
C         8.04948452648917    4.83806956491036    8.74670256074566
H         8.57492170741324    3.89767038520387    8.59669165896773
H         8.43128482450524    5.31589498431806    9.64438256203766
H         8.22961345609550    5.48308384605801    7.89066209920545
C         5.82108561604614    5.90663674291390    9.13437977583867
H         6.04923240651598    6.60136569577100    8.33109967482444
H         6.13929026780900    6.33287616576812   10.08184876992673
H         4.74633305884521    5.74542488928634    9.15928895182968
C         8.20990095961818    5.02698061138563    2.26286947597775
H         8.87564454445502    5.34644944075040    3.03891203951149
C         8.45802573557038    4.28628685502954    1.14992027614631
H         9.35446746299968    3.83571520142550    0.77889949866426
C         6.33838058118695    4.86756760136347    1.20742088113348
C         4.90471999197928    4.97062437728408    0.84431856227527
H         4.79469691401743    4.91585658349251   -0.24078603418595
H         4.54292470323092    5.93916787325448    1.18997073066333
C         4.09618316673444    3.85832840692751    1.51813657329941
H         4.41673197542696    2.87810021083919    1.17004112324315
H         3.04021717110276    3.97820084074891    1.29270180388902
H         4.23336414953115    3.91216938033814    2.59415630124287
N         6.89175315839838    5.37186070417263    2.28643769717129
N         7.26096350066690    4.18949569285119    0.49217058731416
H         7.10369220543359    3.71752470502395   -0.38357944141447
O         3.07081492113079    8.89515268955942    3.42827116087844
O         3.89850981072880   10.98661407948897    2.09650450039988
O         4.75815802494790   10.70009206087893    4.50825841037300
O         4.07472091095761    5.07621876491963    6.18338336936061
O         5.65378574673637    3.28023849470545    5.21664328739795
O         6.07529833729068    3.97086002830740    7.69026522024563
Si        4.37491089993253    9.87142088321296    3.16584200257951
Si        5.62952220230246    4.54544929542867    6.23886122624324
S         5.89967554757311    8.68952848571729    2.31283994861799
S         6.83129622794573    6.18107089784283    5.70037833926333
Zn        6.03196794455096    6.79242910062152    3.61259318920618
O         3.87840647986265    6.33383726283057    3.76419105814830
H         3.43587520626949    7.20761325265878    3.71487591900340
H         3.75952101000480    5.97853255665325    4.66652979369227

