67
CSD_code = WOFSAN | q = -1 | S = 0 | Stoichiometry = C39H27Ni(1-) | MND = 7
Ni       -5.88734384979774    9.24321546580160   16.64798451137760
C        -4.11904256926856    7.41554376957247   14.19813946210115
H        -3.56339715003997    7.16886436088440   15.09349636307465
C        -3.48930766746795    7.48057625168848   12.97010152599264
H        -2.43027492343050    7.26678326047581   12.89750493036798
C        -4.19312703744416    7.82493645319379   11.81830117039030
H        -3.67006147427168    7.87770942045810   10.87181801926148
C        -5.54859150879408    8.09309800329759   11.87171124541854
H        -6.09180964343018    8.35065013159921   10.97157145944626
C        -8.71558504852155    8.45324019095885   12.69537492887634
H        -8.63239661835376    8.64008845629705   11.63245615432219
C        -9.95097180407799    8.48016948928396   13.31597718340536
H       -10.84043553707995    8.69422932815999   12.73706177554654
C       -10.06789153720303    8.22897632354004   14.68118167487182
H       -11.04891000689390    8.24784095324266   15.13920867113130
C        -8.95469108453459    7.96483933394728   15.45570950543828
H        -9.04813094919765    7.79146805606103   16.51993525768055
C        -6.37557345852061    7.73418967144188   15.42801382669520
H        -6.27628532640392    6.92242475288003   16.16324920804306
C        -5.47917458592323    7.69952039965916   14.27488761015998
C        -6.20063713710147    8.01806854748605   13.09368852812773
C        -7.58836951875805    8.17534502452334   13.45448641188162
C        -7.70081743062324    7.95088867821457   14.85242258166461
C        -3.55993998614108   11.04814399517545   14.79315354136311
H        -3.45679808872829   10.10015630269775   14.28452547442339
C        -2.47694673659680   11.89356830011463   14.94882104992516
H        -1.51202102203223   11.60706991300629   14.55032119083074
C        -2.60298551298827   13.10986431928460   15.61363985794737
H        -1.73567009418560   13.74827101741436   15.72707476904877
C        -3.82496043814771   13.51284333905184   16.12347314996646
H        -3.92010459663260   14.46574454497479   16.62881741715762
C        -6.97585530275043   13.87609898501694   16.98121121561294
H        -6.44091048856407   14.75639088398085   17.31508323660373
C        -8.34203023797314   13.77107761040868   17.17682486194695
H        -8.87748072557805   14.57069971869553   17.67350419875888
C        -9.03863396373550   12.64965305894103   16.73584259636557
H       -10.10845173751209   12.59699074304535   16.89330012855778
C        -8.38711124119710   11.60479808838817   16.10660069035189
H        -8.92903476169341   10.73064710981880   15.77407544756652
C        -6.08070681788412   10.72389271877763   15.31143282511658
H        -6.38989011847235   10.28703826822528   14.35875379701877
C        -4.79043410624666   11.42531881670306   15.32056653309116
C        -4.92279644015572   12.68099016545427   15.96949584949989
C        -6.30808569142964   12.84098163440240   16.34596825220030
C        -7.01051891481045   11.68179225786650   15.92358507287064
C        -2.90441747073550    9.56679500279701   17.88801093237247
H        -2.49344427735570   10.55681935823715   17.74223962165121
C        -2.10220839397588    8.45023633177184   17.83400212706109
H        -1.04251770965898    8.56090208554469   17.64254335199722
C        -2.62490182530048    7.16686860896017   18.02491905410550
H        -1.96063071777643    6.31321875533805   17.97798159581037
C        -3.96790571699197    6.97602263537703   18.27515334413471
H        -4.36193737962705    5.97842923028907   18.42776387709800
C        -7.16769990309217    7.31386868234272   19.12220459303070
H        -6.95310084622392    6.25196577581170   19.11341513537606
C        -8.39431971720068    7.77589576872673   19.55197070812167
H        -9.14857013822144    7.07190820382212   19.88005981255989
C        -8.68103857704766    9.14475407160475   19.57613692759867
H        -9.65372155739772    9.46990852959745   19.92249240323085
C        -7.75452112005501   10.07894087456973   19.17330171686403
H        -7.98152496641984   11.13635732877792   19.19737392678337
C        -5.33865453806176   10.35559063620905   18.28351859991156
H        -5.19997558796471   11.42326093190312   18.38131782600741
C        -4.27475595298485    9.40752473238938   18.14092785377928
C        -4.81084394044382    8.08514271838033   18.33320480658922
C        -6.20620424455136    8.23254234299785   18.70310871821796
C        -6.49751252831613    9.64234928044339   18.73009990619748

