37
CSD_code = WOFWOE | q = 0 | S = 0 | Stoichiometry = C14H20MoS2 | MND = 12
Mo        6.63551587540223    0.98270894783568   11.44177484957373
S         5.64928873813114    2.89487856508045   12.60205738972599
C         5.54489003609459    0.98690137868231    9.27392559520497
C         4.59634039359817    1.25561113486490   10.28194089937060
C         4.53089859273782    0.13190266951299   11.14479178930935
C         5.46195891323918   -0.82001898131011   10.66082473903174
C         6.10266852305733   -0.27745206717631    9.51232398058450
C         4.47856257421245    2.13863488956898   13.78440413127344
C         4.36516984247354    2.99696465371893   15.03172569250931
H         5.75228407469143    1.62993288981032    8.42957859669731
H         3.92804981262920    2.10832777751968   10.29351938341572
H         3.76551956471390   -0.05406372265477   11.88201992337855
H         5.50661034679935   -1.85601958623930   10.97022262927247
H         6.77222889408913   -0.81358119588410    8.85606072678008
H         4.83921870204062    1.14114764556613   14.03053237146475
H         3.51182191390329    2.06355927451689   13.28502448757749
H         5.33154090327264    3.07972047656434   15.52329292454555
H         4.03360456426347    3.99697314913554   14.76503847151400
H         3.65084346483653    2.56077761887500   15.72789703196734
S         7.62156891141929    2.89411854423871   10.28244058633401
C         7.72617329078644    0.98721494104514   13.60981928362814
C         8.67467726224833    1.25572786244768   12.60171867226619
C         8.74002390439086    0.13185432029806   11.73908986390738
C         7.80890192449304   -0.81992017917217   12.22321844744908
C         7.16818703733188   -0.27708395439739   13.37158848929338
C         8.79233549852591    2.13861795571636    9.09966626597568
C         8.90600757438061    2.99722182656570    7.85253083893776
H         7.51894478531147    1.63032798525145   14.45414984415619
H         9.34303883415163    2.10838467338342   12.59000157268547
H         9.50533636883417   -0.05428130131790   11.00184226828072
H         7.76419811121770   -1.85598114048013   11.91402651734664
H         6.49870523653656   -0.81309749085026   14.02802936803784
H         8.43172760653721    1.14117989206152    8.85327368101686
H         9.75905237865183    2.06341709586096    9.59905351002486
H         7.93964863293389    3.08017042029238    7.36099589294005
H         9.23771444538080    3.99715645441866    8.11936682922728
H         9.62024246668195    2.56106657665073    7.15623245529665

