127
CSD_code = WOFXEV | q = 0 | S = 0 | Stoichiometry = C54H66Si6Zr | MND = 12
Zr        4.70398995480100    5.34838663552795   13.15510640730990
Si        3.30959152171602    4.45308430893748    9.99976064273902
Si        3.97640973910609    2.46218328001636    8.91554012285076
Si        1.64623070755364    5.79944678759565    8.97508931557618
Si        3.82831303225892    4.28102149827499   16.44102930033504
Si        2.03626426682075    5.29177641710877   17.60346383514779
Si        4.98495131163016    2.48939219912664   17.48106238406226
C         6.20825105322522    3.31458868899340   13.00047180555806
H         5.85085425875372    2.29272693946632   12.98872715463197
C         6.64527488537535    4.02756755585158   14.13727490511187
H         6.69158888598525    3.64066715833901   15.14499932992966
C         7.16833329220692    5.26196233870113   13.70278561109570
H         7.69544582908482    5.97785198833963   14.32093632936326
C         7.06664975499347    5.30911988658415   12.29695806666076
H         7.50792462066278    6.06447028280535   11.65865614709497
C         6.47962802930765    4.10208652981980   11.86181350543769
H         6.38374518742386    3.77928815284963   10.83467484410534
C         2.91668147529498    7.13792663324694   13.32698921783525
H         1.85771555622297    6.93250005768252   13.41999268909715
C         3.60830788574342    7.40258685039914   12.12558563261568
H         3.16695191696833    7.44797876752642   11.14040832137092
C         4.92999556122167    7.76462326934178   12.45449917836535
H         5.67107567887869    8.14698990650233   11.76383211804432
C         5.05426170228011    7.73605679007791   13.85897788998378
H         5.90431919636576    8.09826764272185   14.42368252934893
C         3.80746195548514    7.35551022985841   14.39904113765589
H         3.54286134536309    7.36483136930774   15.44703472432619
C         3.24287768541920    4.30495643891763   11.85952216388463
C         2.43791236992111    3.45739242275229   12.54348980074190
C         2.54803330608956    3.42855934414952   14.02125388732814
C         3.54861247386661    4.13325839946529   14.60116754192007
C         1.49456814606433    2.49641487832884   11.92793319594071
C         0.46368731700854    2.91487389244930   11.09368570625414
H         0.33259924498285    3.96885844972505   10.90519952177035
C        -0.40819403773542    1.99891138592053   10.53454623969974
H        -1.21449230104768    2.34060279200338    9.90082650884482
C        -0.25661419635201    0.64638527017314   10.78943855832308
H        -0.93665967793829   -0.06934648937796   10.35128322506140
C         0.77048331180078    0.21733406382051   11.61411889864818
H         0.89444347633532   -0.83651791153898   11.81746893376308
C         1.63263884772570    1.13343742714432   12.18461372300557
H         2.42471653360137    0.79296889923770   12.83655345894220
C         1.50037243856749    2.67928592864471   14.75164022740831
C         0.15947540968027    3.01170747663990   14.56661315890818
H        -0.10077239400344    3.80969212398259   13.88550615565969
C        -0.83518185544530    2.33386491582647   15.24417977406160
H        -1.86976109250342    2.60762120922266   15.09580204793927
C        -0.51067838649728    1.29925836976147   16.10642760731599
H        -1.28930830769066    0.76282587783183   16.62862953749728
C         0.81766578739380    0.95466283540476   16.29069084739178
H         1.07608769636318    0.14084248895294   16.95355281603294
C         1.81452050040838    1.64320343345210   15.62431513217168
H         2.84712568877213    1.36170669498649   15.75896502679311
C         4.78996733017974    1.23222416897288   10.14040163479847
H         4.74182140351842    0.20995720242379    9.77458264674129
H         4.27603354583607    1.26001035647609   11.09711035063199
H         5.83478575891451    1.46425755667815   10.32336837623721
C         5.24265208517543    2.84209266384382    7.52926946417098
H         6.08419409175731    3.41410269322878    7.90797212006184
H         4.78640118793538    3.42922418075393    6.73823018160891
H         5.63601125275850    1.93532210916441    7.07844608220267
C         2.50442606077971    1.53976919503221    8.12259051607754
H         2.01548570522670    2.13740879655160    7.36082981468336
H         1.75868000965352    1.28075792526882    8.86735180010094
H         2.82903673119029    0.61621324250444    7.65142389658378
C         0.58678988288312    4.80559726386798    7.73113560755485
H        -0.24154664686410    5.40075961903323    7.35719985868461
H         0.17062750760809    3.90975467719745    8.18003295587957
H         1.17744270296116    4.49902169361640    6.87346368482492
C         0.44099506181124    6.60890940055615   10.24067879557712
H         0.41627805671868    7.69019506079233   10.13648284289653
H         0.73722201212696    6.39255967808702   11.26401768229771
H        -0.57637433928816    6.25006811404263   10.11095352264153
C         2.44851320027231    7.22290266025933    7.97536902010857
H         3.16900621894668    6.83377345151672    7.26252837009544
H         2.98092892659856    7.91406175121570    8.62119804363507
H         1.71015028363928    7.79452459999545    7.41929037642948
C         4.79233366249294    5.61697684030724    9.87621047744091
C         5.66363293140869    6.36391956517386    9.48210680526122
C         6.71035578806705    7.23720006248163    9.09619779003286
C         7.98951319757772    6.73594736595147    8.84533330848178
H         8.17350302788402    5.67632781510708    8.95266395930878
C         9.00648182845318    7.59058092074608    8.46702276015334
H         9.99429110123729    7.19717250768904    8.27507558576720
C         8.76423703332288    8.94892042916542    8.33418500435773
H         9.56217386347179    9.61404516792462    8.03881811520721
C         7.49654605972807    9.45266497918062    8.58049126586777
H         7.30721889158850   10.51134697768532    8.47669350435029
C         6.47269250821413    8.60641223270356    8.95899236507273
H         5.48266092385861    8.99442487860343    9.15196348508594
C         0.84996719838820    6.21223555699782   16.41186424724257
H         0.72293663355995    5.64380388622312   15.49494657023450
H         1.22197090203303    7.19504165004368   16.13872075460864
H        -0.13517896260238    6.34649008660545   16.85075176379107
C         0.97298217762458    4.01499667086055   18.54448167553483
H         0.14032187572570    4.49556573112683   19.05042200775615
H         1.54774791851958    3.48631235191752   19.29723665931047
H         0.55903968265964    3.27568478590218   17.86630178621528
C         2.69231110633506    6.55976622676416   18.88067468238318
H         1.88548091720282    7.09987859026980   19.36801233614365
H         3.34387378450360    7.29157104717916   18.41303768211414
H         3.27001587353497    6.06562009213186   19.65573021719451
C         3.93352305275953    1.64879688235116   18.83963241936926
H         2.95722192696036    1.35292199168731   18.47026548111973
H         3.77750108596971    2.31675952881059   19.68101671547397
H         4.42424138435859    0.75774251184123   19.22096856002017
C         6.57251417298054    3.11813780634477   18.34911682305311
H         7.06964682246036    2.32892983730221   18.90692117044532
H         6.33872712502173    3.91698799661409   19.04616433917968
H         7.28715142305753    3.51684340834267   17.63594031167510
C         5.52383530716241    1.11986028271896   16.23866500516784
H         5.05784710496792    0.16528238894165   16.46749429704935
H         6.59908860008958    0.96461188807723   16.25304164805954
H         5.25208460672613    1.38167123685488   15.21914821000641
C         5.19760216004143    5.58171695117367   16.40196163652791
C         6.08228838322026    6.35789979876779   16.69748156042527
C         7.11483044613207    7.29015105736448   16.96569893560391
C         6.81262018158646    8.64038384284393   17.15560752902936
H         5.78428842981819    8.96685501154432   17.09129524661281
C         7.82183071081214    9.54559149084414   17.41971826611171
H         7.58226999484641   10.58908782752269   17.56500605290298
C         9.13877729709364    9.12017185933129   17.49787204719777
H         9.92526661520049    9.83093721361393   17.70425307049852
C         9.44533656654863    7.78123295115438   17.31143221418528
H        10.47176526177471    7.44940539819003   17.37269549403474
C         8.44342359376224    6.86801025266766   17.04705646626255
H         8.67734320130248    5.82308332230252   16.90096720599223

