71
CSD_code = WOFYEW | q = 0 | S = 0 | Stoichiometry = C23H43HfPSi3 | MND = 13
Hf        4.21388997084291   11.25860326556421    1.42331490618640
P         1.95514721633457   11.64113096902700    2.86089424351228
Si        6.29846225656464    8.34437936735322    0.22615917197172
Si        7.59835515677941    7.20072299630453    1.81922284269622
Si        2.66942939254609    7.54325218297627    1.78467589813179
C         6.32223031840002   11.16157120612599    2.66415439465564
H         7.08442691337454   10.42458890999452    2.46200873848714
C         5.41732232953776   11.12741106914605    3.73858277597746
H         5.33473741913459   10.33445357950439    4.46584155326863
C         4.74187728591652   12.35491683919015    3.77764453163572
H         4.10496851332648   12.69904117294719    4.57849046402599
C         5.20178655802426   13.14980430004113    2.71569357078183
H         4.96604788117528   14.19433086341695    2.56836393755497
C         6.18755708063741   12.41658331677276    2.02014054734957
H         6.85701675831885   12.81498403299150    1.26952230505325
C         2.58731998644827   11.35216659171166   -0.55158564727016
H         1.70514618393284   10.74587827030740   -0.68796318588303
C         2.63115252512749   12.64480905499833    0.00360629923749
H         1.77762632942904   13.22928023462575    0.31822212607385
C         3.94088196512809   13.13707044730561   -0.13670674887506
H         4.25509583430587   14.15368533516775    0.05272055148122
C         4.71241275621218   12.14285957515946   -0.77470421513881
H         5.71578736070988   12.27034158210124   -1.15440074589344
C         3.86458396233592   11.04715691021443   -1.04287278132498
H         4.12473729927830   10.17025897327887   -1.61471758227784
C         0.41898135617950   10.97926350403930    2.08656143809847
H         0.60472946327545    9.96422473612685    1.74446685101773
H         0.14824949834703   11.59102795033632    1.22927277885950
H        -0.40437938563117   10.98276080712573    2.80087817428021
C         1.29424824607370   13.27630422736577    3.41234845427631
H         0.39965178496578   13.13193578068929    4.01775005181084
H         1.04544026297364   13.88514912087541    2.54576914471712
H         2.04447320529040   13.80209203974379    3.99854301178977
C         1.89511784791890   10.74517847693660    4.46967028725243
H         0.86682749478238   10.63769560268767    4.81341378295770
H         2.46557000917057   11.28687640209503    5.21947920384813
H         2.34314599805083    9.76410013279086    4.33741004078412
C         3.71382630629043    9.10412906311999    1.61852428145440
C         4.86480263710700    9.26390741206969    1.02207254489480
C         7.37036245693460    9.66397161726612   -0.67132679128740
H         6.88419153776368   10.03088474220320   -1.57075449744873
H         8.32938994506861    9.25012298253680   -0.97040728329276
H         7.57018240080284   10.51831045201815   -0.03129855157508
C         5.68127041646562    7.20372549553913   -1.19429970352014
H         5.07639133602444    6.38197153946181   -0.82716558782061
H         6.52096667336974    6.77767782214478   -1.73563182114817
H         5.07781273797512    7.75391109209752   -1.91050251974121
C         9.41665464435092    7.81092829109697    1.80929433456425
H         9.47616257618151    8.88381575776983    1.96658405802370
H         9.90259413067154    7.59414953851802    0.86263084714771
H        10.00223939193673    7.33538053296071    2.59141459304171
C         7.66759204882401    5.31368351550361    1.49492791619415
H         8.36984088359451    4.82245905257781    2.16284274000705
H         7.98180935809055    5.09869292856492    0.47804400482447
H         6.69905552446431    4.84682943089335    1.64227652243464
C         6.93809836500260    7.45991494819922    3.59842870371767
H         7.24294197237289    6.65767067898149    4.26441932717422
H         5.85344051201049    7.50569995991197    3.60627654647903
H         7.30192747954769    8.39055978883185    4.02205105929582
C         3.71581551440181    5.95108541118448    1.97238893297606
H         4.56068798345906    5.95340851942535    1.29435302305155
H         3.12283450922104    5.06458363447639    1.76531531224758
H         4.10844048547767    5.85212586391442    2.97936908418419
C         1.63759418968023    7.39988568802751    0.17687095354012
H         0.99130855683377    8.25986236500124    0.02950411254101
H         1.00786810476048    6.51480693011818    0.18459077080824
H         2.29041502141906    7.33644026677384   -0.68747316925087
C         1.45504231875592    7.45711424623271    3.26832725678978
H         1.98004452534971    7.47699055900631    4.21848764959088
H         0.90943168242418    6.51837908942643    3.22826417040802
H         0.72020873814257    8.25363095712163    3.27583000859245

