65
CSD_code = WOFYEV | q = 0 | S = 0 | Stoichiometry = C26H38Ti | MND = 12
Ti       -0.06226043215904    4.11159458737208    3.18463276649771
C        -1.12674498381445    5.66743949867306    4.15155267676503
C        -0.32947802334737    6.95204505624465    3.90083106364134
C        -1.36394149191941    5.42812891541782    5.64771808825380
C        -0.06821385714955    4.95868967279520    6.31978547565199
C         0.62167200551884    4.03912178024313    5.35674310843726
C         0.20455207128023    2.71376707551281    5.04432510270499
C         1.15587036184582    2.16169104980870    4.14906032067178
C         2.11611927471549    3.16312614154276    3.86309250881576
C         1.81919634467538    4.30901417788446    4.64600405889135
C        -0.86913247140244    1.98111451133897    5.79908456689783
H        -0.75387180181659    0.90337758193358    5.69479381160460
H        -1.87273190167010    2.25619236941183    5.47060794320199
H        -0.79499062348324    2.21834275410325    6.86250909320643
C         1.39458356228012    0.70703321889572    3.86197016660449
H         0.57961305369999    0.08513295267867    4.22000724452341
H         2.30322366383127    0.39543676248755    4.38489700256494
H         1.54453508192284    0.50753234589111    2.80311511740336
C         3.39975368887957    2.95574666525261    3.11098641815140
H         4.23473375542481    2.88355879499343    3.81292882012659
H         3.60607670194838    3.78641743083789    2.43370165095646
H         3.37462794055933    2.03436642744598    2.53294450369343
C         2.81501244976990    5.38653655084420    4.97327149492408
H         3.27116337548139    5.15846989985073    5.94090529152312
H         2.36806971487724    6.37619223383341    5.04454284578623
H         3.61146215775723    5.42290043050372    4.23299391930220
H        -2.11891501100366    5.82701652078605    3.70875777887748
H         0.51127060147938    7.02235203955709    4.59439463699260
H        -0.95714339025409    7.84007855224103    4.06876747119195
H        -2.12790648190004    4.65194446405394    5.77048943384895
H        -1.74334216800565    6.33765220760390    6.13591675245968
H        -0.28535894852171    4.44737406110544    7.26412296583460
H         0.57612155947878    5.80980343948631    6.54857852789913
C         0.20495296795368    6.95204151199764    2.46843208562224
C         1.00221921010811    5.66743697642009    2.21770403098655
C        -0.74619383177048    4.03911849925484    1.01252270884692
C        -0.05630769777420    4.95868406085047    0.04947805720959
C         1.23942252377936    5.42812166023828    0.72154077487596
H         1.99438884331279    5.82701496256091    2.66049831384038
H         2.00338659052446    4.65193554416686    0.59877134642690
H         1.61882351015240    6.33764450172321    0.23334161038829
H         0.16083709475697    4.44736700277072   -0.89485849348465
H        -0.70064253077205    5.80979807667382   -0.17931623211495
C        -0.32907557502710    2.71376371148188    1.32494226078611
C        -1.28039412863687    2.16169005489060    2.22020809131296
C         0.74460771950230    1.98110878303021    0.57018325810156
H         0.62934661346863    0.90337207295913    0.67447632737553
H         1.74820762306682    2.25618685571080    0.89865830390132
H         0.67046508907786    2.21833472834461   -0.49324177089222
C        -2.24064205349198    3.16312653541597    2.50617453023890
C        -1.94371757465722    4.30901354908533    1.72326198059137
C        -3.52427763619947    2.95574884655545    3.25827927469777
H        -4.35925701366102    2.88355934415802    2.55633614214505
H        -3.73060127559778    3.78642130657362    3.93556174372382
H        -3.49915290294822    2.03436996283340    3.83632342519661
C        -2.93953312090175    5.38653550886735    1.39599100748816
H        -3.39568269885871    5.15846711928551    0.42835692811353
H        -2.49259004311712    6.37619091600947    1.32471817895258
H        -3.73598400594786    5.42290101569099    2.13626718853945
C        -1.51910865753307    0.70703278232983    2.50730022419536
H        -0.70413619358317    0.08513157343822    2.14926931378046
H        -2.42774584132368    0.39543452830920    1.98436922424624
H        -1.66906582080452    0.50753459422874    3.56615501179372
H        -0.63579435591818    7.02234941182385    1.77486733078750
H         0.83261939384172    7.84007383168971    2.30049519442125

