114
CSD_code = WOFZUN | q = 0 | S = 0 | Stoichiometry = C59H49Cl2OsP3 | MND = 6
Os       -2.81286765945240    1.75233351282441   -4.31646811066123
Cl       -2.73356930786551    2.45077478376392   -6.73906468400800
Cl       -0.45920843736937    1.11363291829283   -4.13922875782823
P        -2.83090275727045   -0.55522355469299   -4.68350343774903
P        -2.29416386103162    4.01294698299566   -4.43214118094758
P        -7.44786040714854    1.68802917863425   -3.92778354437367
C        -4.76321448416422    1.98317897273300   -4.47254814070510
H        -5.18018419757865    2.38352545678806   -5.40372043500090
C        -5.70408804948249    1.58118828478014   -3.54880788603312
C        -5.43796047470121    1.20029412036624   -2.20703230729410
H        -6.28137744479119    0.91204452367978   -1.58409638935348
C        -4.17505395908538    1.26768727673847   -1.65148492833270
H        -4.09727887606913    1.06158905957321   -0.58723258738643
C        -3.03852504397971    1.62163112732162   -2.36392107891885
H        -2.16557744431635    1.81368088694819   -1.72907533935744
C        -1.58756838241212   -1.35038346366997   -5.76376869155841
C        -1.04119723129292   -0.62902205020477   -6.81866892365911
H        -1.32004175738848    0.40552814400442   -6.96621519080889
C        -0.13419173033653   -1.23161524583296   -7.67123321519002
H         0.29663829177091   -0.66268492197429   -8.48214421632348
C         0.22241653291979   -2.55626988839824   -7.48437486908960
H         0.93661085066257   -3.02469327693245   -8.14637239223076
C        -0.33980233608287   -3.28376222823484   -6.44795483175937
H        -0.06871457136033   -4.32030660810689   -6.30417715179043
C        -1.24716284060978   -2.68847550010766   -5.59158460435249
H        -1.68147541484938   -3.26112212492948   -4.78348070629777
C        -4.27365606975613   -1.32524126449251   -5.51753884295150
C        -4.72771925725394   -2.61510508599369   -5.26414840236818
H        -4.27770425430323   -3.20516107582279   -4.47838104033878
C        -5.75953397408091   -3.14701093030957   -6.01778228663419
H        -6.11072155469848   -4.14913310320003   -5.81419702565555
C        -6.33033182435913   -2.40925001453303   -7.04227222759273
H        -7.13061768477980   -2.83369136258049   -7.63163892637137
C        -5.85916502724432   -1.13648470021105   -7.32027263536739
H        -6.28014502970495   -0.56658620341453   -8.13557214766697
C        -4.83866140644087   -0.59597404630474   -6.55981152523943
H        -4.45711166165942    0.39287936505141   -6.77855882970864
C        -2.69898530738590   -1.46625542405549   -3.11684016905066
C        -3.84534182973611   -1.73980532560177   -2.37439025303881
H        -4.81644407202269   -1.48245805156657   -2.77411668298476
C        -3.74233689736061   -2.32812973920891   -1.12814793933975
H        -4.63718126802219   -2.54414269026178   -0.56093814674688
C        -2.49655255481971   -2.63133807113400   -0.60277051835595
H        -2.41841802635547   -3.08992948620166    0.37252203976393
C        -1.35218489644633   -2.33265754773226   -1.32378463284381
H        -0.37911538042867   -2.55107522466164   -0.90843665475700
C        -1.44906361974340   -1.74754454603740   -2.57311663063429
H        -0.55700623219725   -1.49152217403276   -3.12703799025056
C        -0.91266684944440    4.68488411789878   -5.41820405382658
C        -0.79004707294311    6.07152925479370   -5.49304113541819
H        -1.51527440756468    6.70347920654984   -4.99630246639380
C         0.25266109152397    6.63728005637059   -6.19963000092040
H         0.33866449053862    7.71316888943487   -6.26174811761170
C         1.18886379169215    5.82719368132873   -6.82392011351553
H         2.00381106948857    6.27282957795497   -7.37646780306905
C         1.08126682770821    4.45107209726683   -6.73140237885810
H         1.81485648278723    3.81659678499328   -7.20700640433005
C         0.03519701257533    3.87735075124630   -6.02920945138467
H        -0.03848353870073    2.80327254411073   -5.95324362588380
C        -1.79796265212941    4.83532328267132   -2.86486122310801
C        -2.34436727878725    5.99227598330312   -2.32572982997657
H        -3.16970959069491    6.48998763639058   -2.81655736459190
C        -1.82973872694895    6.51954038964484   -1.15323665988781
H        -2.26010365544979    7.42095148222668   -0.73908786110876
C        -0.76669790721054    5.90407045606660   -0.51531442173487
H        -0.37010538010956    6.32216838778430    0.39881333964195
C        -0.20904364256010    4.75590327322441   -1.05554881644700
H         0.62570551850142    4.27620489963907   -0.56529474694773
C        -0.72090121062626    4.22610445216814   -2.22384616445949
H        -0.28986799612020    3.33224083914021   -2.65808581908854
C        -3.72583886791023    5.00453908504743   -4.96680222522485
C        -3.82299544256713    5.58428549252399   -6.22468534182444
H        -3.00707649272889    5.48439466173245   -6.92530809472706
C        -4.97111412752434    6.27073329299563   -6.58294672669493
H        -5.04207206044335    6.71983950355484   -7.56324709973312
C        -6.02388339299413    6.38604466381697   -5.69122102535623
H        -6.91515460561790    6.93127247096663   -5.96879637789696
C        -5.94277166646038    5.78489718993669   -4.44259544243211
H        -6.77111265242132    5.86241966141487   -3.75080764178552
C        -4.80523748705829    5.08377786107563   -4.08854468967784
H        -4.73693297059492    4.58137713312805   -3.12999711631000
C        -7.76964123136089    1.85996822193344   -5.69244874926960
C        -7.39212889002216    3.05912432470670   -6.29553308782048
H        -6.96329859315714    3.85210820926652   -5.69751966361581
C        -7.57289775153081    3.22799896255807   -7.65499471569358
H        -7.26135414987837    4.14859851175393   -8.12417984493016
C        -8.14749326517743    2.21585899109769   -8.40833597623513
H        -8.28847827681995    2.34925221806160   -9.47042987494114
C        -8.54364151417290    1.03423689446317   -7.80271787848013
H        -9.00061924886262    0.25135356531285   -8.38990391170297
C        -8.34907790937173    0.84595047322909   -6.44529978502900
H        -8.64464102842984   -0.08114905457682   -5.97469770341514
C        -8.26759180318374    0.18565576345286   -3.34435905351655
C        -7.67176389544040   -1.02122428615705   -3.70605737559336
H        -6.78074037024932   -1.00813456738600   -4.32019949903568
C        -8.21946048495428   -2.21302879533027   -3.27332464944249
H        -7.75743050445718   -3.14752150894680   -3.55349176496731
C        -9.35467996975926   -2.20240499960019   -2.47614567581326
H        -9.78015649548488   -3.13338041544045   -2.13285472736089
C        -9.94238955253437   -1.00135615643570   -2.11217176027094
H       -10.82312264023479   -0.99800371360083   -1.48740604889476
C        -9.40206338515818    0.19829075222985   -2.54280042260701
H        -9.85312288533940    1.13862177283862   -2.25717178797529
C        -8.25995258438469    3.10505599921016   -3.13904004131635
C        -9.47448098986270    3.57359234669096   -3.63660683291854
H        -9.93638111973826    3.07557900673756   -4.47884339657826
C       -10.07663795674824    4.67075379343630   -3.05025815029298
H       -11.01774445411032    5.03609568815180   -3.43362251894222
C        -9.47231044452055    5.30349749911674   -1.97411299308239
H        -9.94417171217894    6.16264835251018   -1.52160819644179
C        -8.26100714502600    4.84112518251264   -1.48341278155575
H        -7.78744896459529    5.34069277320630   -0.65151852358814
C        -7.65016137242653    3.74447167373272   -2.06495035260262
H        -6.69695719911825    3.38517379683440   -1.70239028657001

