105
CSD_code = WOFZIB | q = 0 | S = 0 | Stoichiometry = C32H64Si8Zr | MND = 14
Zr        7.18437163805741    4.21545153974794   10.09923261887557
Si        3.65839652862272    2.50391899204187    8.78899147021263
Si        2.34899547430515    4.34912023739560    9.47637414365879
Si        3.32409328957757    0.52866279691062   10.06267424646634
Si        3.56954451574868    2.07214326192246    6.46175925893134
C         7.18513110511203    2.52966467743615   11.94663226827896
H         7.18532426909672    1.45782319376578   11.79233377458342
C         6.04150994550069    3.33448520921217   12.13652399408308
H         5.01949573735700    2.98094011746947   12.17070242685424
C         6.47881643037290    4.63980848851152   12.45910224409411
H         5.84976529443113    5.45216661728733   12.80484731226812
C         7.18674041096823    6.69744645877089   10.12667091428674
H         7.18948526320728    7.31639038777801   11.01703657204946
C         8.32898207938274    6.30814604089498    9.39074926607368
H         9.34896010523051    6.59583781025127    9.60867169626224
C         7.88378798737106    5.71061946604721    8.18745482647977
H         8.51638221422627    5.40472720282591    7.36442637208416
C         6.51881794622343    2.48576223889150    8.73485986374117
C         5.41716611508949    3.02100719971144    9.16580769216453
C         2.30928285251564    5.75832719611421    8.17627446288282
H         1.77611169064338    6.63589778285345    8.53337418180844
H         1.81126463746252    5.42557134798132    7.27035960416371
H         3.30989159644699    6.07360642481880    7.89703731799992
C         3.01725627349294    5.08624097086876   11.11627513587027
H         4.10804439996323    5.09767516443995   11.09497181007412
H         2.71212489022250    4.48421975771752   11.96726757895441
H         2.67119685686542    6.10081713923187   11.29814153465160
C         0.53147087740567    3.83583588436241    9.77155542693269
H         0.09203752552295    3.43481232253457    8.86372863156453
H        -0.08366701036872    4.67322854958548   10.08718868143838
H         0.45397331976404    3.06841745254707   10.53525593926929
C         2.90181483757388    0.81857871941047   11.91089961219315
H         2.49681728004074   -0.07887373698817   12.37137510614819
H         2.16028898813820    1.60332490108931   12.02712895863938
H         3.77815140020108    1.10603327452275   12.48347905964647
C         1.87447410686970   -0.48963500714824    9.34006791929800
H         2.02700697618968   -0.70943416942626    8.28825460277550
H         0.93892814970477    0.05398301149530    9.42666999781569
H         1.74891707525852   -1.43710810836910    9.85618807903521
C         4.90493061092717   -0.54915617980212   10.00705479126609
H         4.89674412442169   -1.35030725441192   10.74109717679952
H         5.78278250037052    0.06376860062112   10.19676852441622
H         5.03505188671924   -1.00083647275398    9.02869134065356
C         1.77582660998182    2.07153090378838    5.79857338280159
H         1.29525497162959    3.03083368155231    5.96264832968568
H         1.17598066197696    1.31761498053436    6.29834921390219
H         1.73707837869123    1.86523647674476    4.73300192670697
C         4.36178166858150    0.38270210542096    6.03343489190828
H         4.41536244682309    0.21320858124514    4.96109236434049
H         3.80051944624302   -0.44019138580600    6.46548265936905
H         5.37373454958276    0.32700966030693    6.42351729787392
C         4.56076823053711    3.39077201874990    5.48896511015245
H         5.58706349881842    3.42911902477837    5.84569884834730
H         4.13044915125146    4.37982213297951    5.61499143827545
H         4.59343077847760    3.18357936591192    4.42248091801917
Si       10.71062130404775    2.50405663811480    8.78916009455398
Si       12.01978868339929    4.34953792198735    9.47601030783648
Si       11.04403980238943    0.52867990789230   10.06232288569541
Si       10.80044517971884    2.07240376917648    6.46140085540990
C         8.32849662996512    3.33491372347166   12.13618867704578
H         9.35066562047166    2.98178904323415   12.17001217598363
C         7.89079598011460    4.64005468354996   12.45890849228707
H         8.51966635161072    5.45258103150815   12.80456649117413
C         6.04020882909280    6.31047738441036    9.39623539386450
H         5.02187988664595    6.60032170074522    9.61903747257746
C         6.47839531461385    5.71206406434403    8.19081931110084
H         5.84129949749653    5.40750413568954    7.37078543998666
C         7.85021580106973    2.48606854658939    8.73487898788350
C         8.95186887557107    3.02087943797874    9.16631788358067
C        12.06054244963697    5.75726033189983    8.17431611164717
H        12.59069037707421    6.63651039012609    8.53180499325596
H        12.56186995897565    5.42453241175264    7.27021132863107
H        11.06002327265825    6.06986872907077    7.89177366191536
C        11.35075809666489    5.08837845879820   11.11484550482546
H        10.25997118793240    5.09965362113416   11.09319046476093
H        11.65572088693337    4.48738457126249   11.96662960500434
H        11.69664724693033    6.10321215592971   11.29557097447285
C        13.83708164637540    3.83650427507632    9.77285902996978
H        14.27782863147693    3.43596951517497    8.86546588514096
H        14.45179028985153    4.67365503773844   10.08990667109749
H        13.91362142289911    3.06864594183973   10.53616800626242
C        11.46559888201790    0.81813978248060   11.91076763022941
H        11.87129665254290   -0.07923174204148   12.37076406387358
H        12.20632002268064    1.60355246852121   12.02778339600440
H        10.58876197248045    1.10434220410929   12.48319116612270
C        12.49418926640201   -0.48912362598372    9.34013320626017
H        12.34235440646206   -0.70851977517675    8.28813875921421
H        13.42968225680441    0.05447870559308    9.42750175615151
H        12.61950647961413   -1.43680391542150    9.85591800631337
C         9.46314321681354   -0.54894862028822   10.00529724757586
H         9.47063679055730   -1.34990542636286   10.73954741774101
H         8.58526230000825    0.06421406530086   10.19412947966237
H         9.33385415286057   -1.00077289214343    9.02688084423049
C        12.59466442709386    2.07063762952030    5.79954685341609
H        13.07534349777120    3.02983684376246    5.96384263332276
H        13.19391828376147    1.31660561059490    6.29987956951196
H        12.63414068608058    1.86422121262772    4.73401599410353
C        10.00772034536122    0.38319890926175    6.03292662832107
H         9.95392641697517    0.21372097709648    4.96059398188516
H        10.56862778535126   -0.43997666873581    6.46491355895564
H         8.99579285798797    0.32789203295669    6.42310117017508
C         9.81063090191112    3.39134694570147    5.48758631700852
H         8.78356837705204    3.42878082770299    5.84216786648561
H        10.24026600076735    4.38042160122375    5.61568379565846
H         9.78044820823671    3.18523836700244    4.42080913467433

