78
CSD_code = WOFZOG | q = 0 | S = 0 | Stoichiometry = C31H36CrNO7PSi | MND = 6
Cr        3.57177402949146    4.79977530893827   12.38206734437219
P         5.82940804271435    4.29739517860922   11.86518473444740
Si        8.05059662933010    3.47239652108376   15.70671954675716
O         8.27513188309357    5.04304231753222   16.04924025401955
O         7.64601832028358    2.52393210729278   16.96814531631464
O         9.48951526063236    2.90441251600087   15.21457523736477
O         0.79611333501923    5.73755080734509   12.98967975010856
O         2.42260218023543    3.02219767479507   10.25169752643093
O         3.18645309992261    2.49086029080219   14.26509288528485
O         3.29101034121629    6.58994473006524    9.99414106358335
N         4.50732605255670    7.42721181192419   13.38982028065228
H         4.67051582948169    8.15243231198354   14.08241340747627
H         4.54922433737179    7.69807705023167   12.41879115406845
C         4.14794359183913    6.18999832690242   13.72769393847304
C         4.18362486964233    5.99558265973003   15.18358088869783
C         3.12669167814932    5.38420673884273   15.86292631652921
H         2.24478204722274    5.08971390989776   15.31297615025416
C         3.18762309800165    5.18372027095931   17.22767743664961
H         2.35720721902171    4.71763071352278   17.73690501232487
C         4.30750190299393    5.57511788180100   17.94585522722353
H         4.35348385318375    5.40878416797888   19.01215858768144
C         5.36248501305112    6.18324450577536   17.28734896926376
H         6.24096209754312    6.48891848612814   17.83639354445494
C         5.29680378506164    6.40517708243206   15.92493239074213
H         6.14187718461051    6.85367218156620   15.42237092737790
C         6.47941596014399    5.34106007849799   10.51841295172970
C         6.06322783438331    5.03901995066724    9.22254208738967
H         5.45303050154008    4.15944444179505    9.05760271340602
C         6.41786553774892    5.85246981565504    8.16494184243631
H         6.09237355991475    5.60980480415103    7.16430489134672
C         7.18303978060982    6.98679153509663    8.39026537145495
H         7.45749565847711    7.62667376926400    7.56487452510422
C         7.58652605093884    7.30284622365238    9.67607350609127
H         8.17665298924233    8.19072952915796    9.85344902839025
C         7.23282386483630    6.48821011485890   10.73854746948574
H         7.54601154551087    6.74708745688690   11.74016037764148
C         6.32259091500328    2.64852628358215   11.24128498193252
C         5.49499196389169    1.55497920534864   11.46335844028712
H         4.54254659690098    1.70083921040823   11.95588987885992
C         5.88180028873373    0.29083373385516   11.05148476533581
H         5.23263386464595   -0.55412533602689   11.22744367198443
C         7.09674263163315    0.11213647227915   10.41226199568020
H         7.39773358676813   -0.87288839137594   10.08781981930714
C         7.92556470131643    1.19956313104165   10.18419571809226
H         8.87181809440437    1.06106257231744    9.68174548124508
C         7.54394943125140    2.46143755015311   10.59870626486297
H         8.18866911625089    3.31076098201679   10.41524942004853
C         7.10895601474174    4.45601281214830   13.18728143144541
H         8.09285112511392    4.19304026040640   12.78798099475801
H         7.13660474502810    5.48627555836875   13.54502504758313
C         6.72813943798583    3.54039405007130   14.34527518131208
H         6.55170659695104    2.53130970081120   13.96429517279541
H         5.77858962316871    3.88647751283939   14.75675480911181
C         9.26294440495900    5.63584530774930   16.86448477249497
H        10.22705580765007    5.15668082810221   16.67160464212337
H         9.00261777941626    5.46960210350616   17.91666558767714
C         9.34090642568558    7.12507988050159   16.56379204854347
H        10.10231213809040    7.58888292364641   17.18488010561664
H         8.38383335783658    7.60043934002268   16.76277086363394
H         9.59449792412445    7.27720030055515   15.51808020983528
C         6.53412075145293    2.57384933824135   17.83319713344063
H         6.27237455340133    3.61649704405110   18.03960837626293
H         6.85691310078297    2.09616558442247   18.76476910919465
C         5.32935915105770    1.84142767931764   17.26182638111607
H         4.53262155357116    1.81701331662156   18.00002008580108
H         5.60275474370384    0.82241133603405   17.00096288733870
H         4.96542538658655    2.34385764356712   16.37080351231440
C         9.89095367317237    1.57881614688829   14.96014400612798
H         9.48190502515092    0.92060903787574   15.73178276152292
H        10.98377006719005    1.57399686231797   15.03082335292075
C         9.45414357677589    1.10700232452773   13.58041128815293
H         9.84803905436159    0.11300022744754   13.38767553351340
H         9.82387625349689    1.78784319660559   12.81827282480139
H         8.37013231467339    1.07578274071240   13.51704949617126
C         1.86333430075754    5.34667406812662   12.77322944754665
C         2.91900263814479    3.65086085434978   11.08579777918714
C         3.43490261901571    3.41674765008518   13.61990941269176
C         3.50027570013998    5.98944568464838   10.96132265228879

