97
CSD_code = WOGCIF | q = 0 | S = 0 | Stoichiometry = C38H54N3OV | MND = 5
V         3.47292349073968    1.11742431979334   11.50383672256436
O         3.23525444501374    1.98924016098119    9.83257278984908
N         5.44543351975267    1.85313598591077   11.26033659269581
N         3.77605784796096    0.32339213137065   12.87923714938064
N         2.01403438322130    1.82056603378425   12.03154545017597
C         2.77740588849932   -0.61105279509282   10.56904695325071
C         3.61333751289807    3.12192310837297    9.40130794665895
C         4.84160426400024    3.71217484672810    9.84145830010957
C         5.23320197815142    4.97667952098595    9.37073391973810
C         4.44834140494718    5.66934695225028    8.48963762599394
C         3.26997919790334    5.08438968017775    8.01245138044000
C         2.85622148589768    3.84224844249333    8.42139942904411
C         5.72913891724981    2.94799881964086   10.64640439438735
C         1.60745080553711    3.21920351428203    7.87005110707032
C         6.53089813368146    1.13494779653032   11.80249429831235
C         7.22390725923489    0.25396817580539   10.95747720885375
C         8.32123911446442   -0.42798659356385   11.46223079795141
C         8.72026954768994   -0.25270058882298   12.77289356375207
C         8.02543042486690    0.61086080972466   13.59852670628763
C         6.92888843848120    1.32260420710608   13.13383267824127
C         6.79930350632873    0.06931493877606    9.51479422755929
C         7.70093425867995    0.89734340471139    8.59318527506408
C         6.81732839544927   -1.39779994464042    9.07966657302073
C         6.19247894366464    2.30340420377595   14.02031030130611
C         6.74867023156115    3.72096287168519   13.83429927095286
C         6.26165938365835    1.93017936940653   15.50129394366754
C         4.01328243948482   -0.40322524901217   13.97029498264391
C         4.81705145634931   -1.57274373539318   13.90965098992281
C         5.08680863898039   -2.28849262101349   15.06160664938319
C         4.57248104599722   -1.90445279473628   16.28741621762294
C         3.75585714791070   -0.78850527907617   16.35525299981156
C         3.46741654068427   -0.03841962391901   15.23053828670728
C         5.35406030044361   -2.06018863173636   12.59874541382014
C         2.58254199851820    1.16638901051505   15.34919482381053
C         1.02195259468851    2.53071393381455   12.27753820727633
C         1.23661299238482    4.00132201549708   12.69644848963905
C         0.74013346601760    4.91963034269136   11.57225029313649
C         2.74190240642733    4.25427815786201   12.86850019959840
C         0.56039037001208    4.35167105834366   14.02923394388888
C        -0.36272995912957    1.87068960872630   12.07855862999273
C        -1.58097244120329    2.56957431131278   12.68199891673871
C        -0.56597058158022    1.74307700185619   10.56234879808922
C        -0.29151523908389    0.46363219825355   12.69333761799086
H         2.46852515367863   -1.42275451668451   11.22927549559111
H         1.95644661598133   -0.39065191472992    9.88530465631584
H         3.62141347160243   -0.95997334868152    9.96595660974426
H         6.16525516692080    5.39620372957948    9.72645193965869
H         4.74056899422936    6.64872474504840    8.14284148166415
H         2.67077871473693    5.62288797798311    7.29026107146189
H         6.76633107523835    3.31287495114648   10.67625996857963
H         1.54066249759216    2.18275738717196    8.19301769968774
H         0.72004207653234    3.74883543380646    8.21798056490595
H         1.61229342967146    3.25372834827066    6.78129588873183
H         8.87532798277456   -1.09834214253266   10.82347250064751
H         9.57861314398398   -0.78780794194635   13.15198623068483
H         8.35438414364666    0.73773074538767   14.61695690235186
H         5.76932572220475    0.43392810413558    9.40272391205695
H         7.41455353832291    0.75002616854310    7.55350526820174
H         8.74042497630895    0.59734275887333    8.71242888225768
H         7.62299181005253    1.95878529061329    8.82025729786496
H         6.34804216287810   -1.49565313124238    8.10224733857659
H         7.83447843422406   -1.77344321122921    8.99918586254176
H         6.27361447714401   -2.01890133152070    9.78777240832438
H         5.13728565007266    2.29569795395135   13.71062332997034
H         6.56345776321341    4.09285536431717   12.82988011379092
H         6.27283975381477    4.40158656311875   14.53765291987021
H         7.82232233432280    3.73197188692399   14.01579275352106
H         7.25542988659572    2.11052082899635   15.90549027694701
H         5.56197836369909    2.54263480889763   16.06620689180437
H         6.00046564470401    0.88594501057128   15.64940628938203
H         5.71043321678585   -3.16907176522772   14.99216231746897
H         4.79519807287657   -2.47397534867412   17.17725974308334
H         3.33195451843418   -0.49077186114368   17.30448064037718
H         6.41898868053008   -2.27440565274999   12.67717036429857
H         4.84251765617763   -2.97859023500504   12.30716050594137
H         5.19134892085120   -1.30698439600539   11.83140915830317
H         2.15821765970377    1.40235070684379   14.37594154407224
H         1.78605829584983    0.97966749862874   16.06772322692275
H         3.15677461709439    2.02397777324321   15.70261234728814
H         0.93531616418088    5.95788711056758   11.83594489800469
H         1.27010934662811    4.69643840591745   10.64825600615011
H        -0.32573029630331    4.81155058289771   11.39579435708882
H         3.28071387309227    4.03386269386280   11.94701403276017
H         2.91227508073966    5.30112751999807   13.11548380263546
H         3.14301700791161    3.63448793628572   13.66944179560376
H         1.02308662154307    5.24713029257403   14.44049970146813
H        -0.49703736219536    4.55727254345872   13.91179740485038
H         0.68996731465243    3.54538060624563   14.74683614381624
H        -2.46685317352361    1.99200222049604   12.42026848439338
H        -1.52023668520326    2.60396411113424   13.76542902754625
H        -1.72360508760335    3.57382213503474   12.29527688893140
H        -1.45436114090830    1.15101683811856   10.35043289201769
H        -0.68759825139255    2.72162545351285   10.10405362240651
H         0.29762805816421    1.25347965626546   10.11944106011279
H         0.57668516156203   -0.07318199959722   12.31417910182673
H        -0.20739801210539    0.52781883142288   13.77621401102918
H        -1.19371919812800   -0.09371125303582   12.45094230007534

