76
CSD_code = WOGCEB | q = 0 | S = 0 | Stoichiometry = C31H39Cl2N2OV | MND = 5
V        16.13225801175869    3.99608110608295    3.51451901784962
Cl       16.82386271519067    5.25019797851415    5.11001890689502
Cl       15.95852664726720    2.31060805631746    4.74642922577485
O        15.30319515122302    5.18066598932307    2.67589351976166
N        14.70390977631475    2.77596296670777    2.11405207225119
N        17.48814401505510    3.73846398478431    2.68196907256016
C        14.79710727465726    5.62614092233876    1.57376475022585
C        14.14521739730055    4.68102138389015    0.73691738976919
C        13.55298373667104    5.09685592278720   -0.45963736899543
C        13.62301500033751    6.41458682375329   -0.83524626243359
C        14.27721483648941    7.33755030006952   -0.02157261889468
C        14.86611061764559    6.98810705399184    1.17899449980019
C        14.05666404822205    3.30940979071410    1.14896197730944
C        15.59869028761855    7.98960881979431    2.06151085952406
C        15.52322643545220    9.41568952662963    1.50560823584474
C        14.97230245190048    7.99510952456396    3.46283455169049
C        17.07993738544008    7.58820973210358    2.14828553177569
C        14.39267743009710    1.44604962396355    2.45790851907944
C        13.21095142865902    1.17688177790740    3.16243829630597
C        12.92031544900965   -0.14220773837239    3.48157924965681
C        13.76877520983359   -1.16868836291244    3.11550225322770
C        14.94426630859793   -0.88589876831453    2.44560697238418
C        15.27915753574560    0.41808974519950    2.11533556797265
C        12.29227085345265    2.28585496147104    3.62891757630628
C        10.90760050513069    2.15971700325984    2.98972221091275
C        12.19347145158191    2.28395935408443    5.15708105512674
C        16.56504389023761    0.73447282736864    1.38962030327028
C        16.48706062019346    0.27988224402985   -0.06973429419398
C        17.77027551666788    0.11104810449988    2.09444850739444
C        18.65811179363738    3.54512309598742    2.07341425776854
C        19.78282778730982    3.12777281252673    2.83220725126220
C        20.98362867519249    2.89933179000719    2.18683818685942
C        21.10514816500980    3.07058612621658    0.81683171098887
C        20.01612736692878    3.49748015806624    0.07584519157851
C        18.79562152136579    3.74734550756716    0.67781369594682
C        19.64743394502514    2.97290453744012    4.31250356975523
C        17.62036943254324    4.20822707591060   -0.12872205588265
H        13.05475104433415    4.36691905801506   -1.08114197935162
H        13.17461219907971    6.74427394931842   -1.75959420952033
H        14.31536213165449    8.36070837256507   -0.35651605498906
H        13.35383553822688    2.69294067059532    0.57206275441110
H        16.04579636522313   10.08835697619507    2.18191121122744
H        16.00132189121619    9.48620616798179    0.53131108427555
H        14.49235677489055    9.75402763183354    1.42643189610611
H        15.44807341520238    8.75564524758609    4.07776316682040
H        13.90683762602453    8.21396547484465    3.40205502132129
H        15.10816779678191    7.03701072823280    3.96084890995711
H        17.20500965131784    6.60364278988051    2.60084573509470
H        17.52626136756355    7.57513231707588    1.15487803209196
H        17.61902986938905    8.30857378254195    2.75924629114268
H        12.01534521460856   -0.37028478259035    4.02394352013885
H        13.51869888890588   -2.18958606951060    3.36318119649503
H        15.60983958229885   -1.69095789409236    2.17554493282992
H        12.71195696286371    3.25581429324897    3.33092132716972
H        10.27089840203121    2.98277317857537    3.30809525915487
H        10.98088170721660    2.18198281179958    1.90371592881642
H        10.43172556790256    1.22637408095990    3.28024385577070
H        11.60239057529324    3.13321586102631    5.49559193582060
H        11.72362038159019    1.37291922038255    5.51913104389652
H        13.18755684410120    2.35358248050397    5.59578344284232
H        16.70040798041088    1.82148140731467    1.41304044131824
H        17.40960718385694    0.53146456437502   -0.58854602941455
H        16.33980789781915   -0.79633879538263   -0.12827949027198
H        15.65711299373119    0.76545262308772   -0.58065279222737
H        17.76264989377738    0.39081203705650    3.14544889465504
H        17.75920128488507   -0.97338674720670    2.02004182454764
H        18.69092591157980    0.47856837185306    1.64573459986986
H        21.83917745859256    2.58024727447538    2.76432504954209
H        22.04934060012739    2.87974801880890    0.32941215748805
H        20.11663818985632    3.64435492796359   -0.99009492682351
H        19.47097678695041    3.94775513324421    4.77118135246329
H        18.78936891281609    2.34282107934430    4.55102918617062
H        20.54654708566191    2.53779594661218    4.74114516128561
H        16.96807512967180    3.36754220001780   -0.36965922731548
H        17.03616728669014    4.93300590912640    0.43795491919413
H        17.95026493111752    4.66033794404709   -1.06119680844617

